LAMMPS (2 Aug 2023 - Update 2)

# variable T index 300 400 500  #
# label T_loop

# Initialization
units           real
dimension       3
boundary        p p p
atom_style      full
timestep        0.5   # fs

variable       Tl equal 300.0   # low temperature
variable       Th equal 2100.0  # high temperature
variable       Td equal 50.0  # damping time
variable       P equal 1.0  # pressure
variable       Ph equal 1.0  # pressure
variable       Pd equal 10*50

variable       nevery equal 10
variable       nrepeat equal 10
variable       nthermo equal 10*10
variable       nrun equal 100

variable       nequil equal 50*100
variable       nheat equal (2100-300)*100
# variable       nheat equal 1000   # 1800

# Read the initial sctructure
# box tilt large
variable structure string 333U-50C-14
read_data       333U-50C-14.data
Reading data file ...
  triclinic box = (0 0 0) to (17.3186 12.8149 18.6403) with tilt (-8.851 0.4589 0.2054)
  reading atoms ...
  371 atoms
Finding 1-2 1-3 1-4 neighbors ...
     0 = max # of 1-2 neighbors
     0 = max # of 1-3 neighbors
     0 = max # of 1-4 neighbors
     1 = max # of special neighbors

# Assign the force field
pair_style reaxff NULL safezone 3.0 mincap 150
# pair_coeff * * CHONSSi.ff O Si
# pair_coeff * * CHOSiNa.ff O Si
# pair_coeff * * SiOCHN_2018.ff C H O Si
# pair_coeff * * PDMSDecomp.ff Si O
pair_coeff * * CHONSi.ff C H O Si
# pair_coeff * * CHOFe.ff O Si

fix myqeq all qeq/reaxff 1 0.0 10.0 1.0e-6 reaxff maxiter 400

neighbor        2 bin
neigh_modify    every 10 delay 0 check no

# Energy minimization
print "##### Minimization starts.##### "
##### Minimization starts.#####
# fix min1 all nve
minimize 1.0e-6 1.0e-6 100 1000

CITE-CITE-CITE-CITE-CITE-CITE-CITE-CITE-CITE-CITE-CITE-CITE-CITE

Your simulation uses code contributions which should be cited:

- pair reaxff command: doi:10.1016/j.parco.2011.08.005

@Article{Aktulga12,
 author = {H. M. Aktulga and J. C. Fogarty and S. A. Pandit and A. Y. Grama},
 title = {Parallel Reactive Molecular Dynamics: {N}umerical Methods and Algorithmic Techniques},
 journal = {Parallel Computing},
 year =    2012,
 volume =  38,
 number =  {4--5},
 pages =   {245--259}
}

- fix qeq/reaxff command: doi:10.1016/j.parco.2011.08.005

@Article{Aktulga12,
 author = {H. M. Aktulga and J. C. Fogarty and S. A. Pandit and A. Y. Grama},
 title = {Parallel Reactive Molecular Dynamics: {N}umerical Methods and Algorithmic Techniques},
 journal = {Parallel Computing},
 year =    2012,
 volume =  38,
 pages =   {245--259}
}

CITE-CITE-CITE-CITE-CITE-CITE-CITE-CITE-CITE-CITE-CITE-CITE-CITE

Step          Temp          E_pair         E_mol          TotEng         Press
0   0             -41361.517      0             -41361.517      73123.45
Loop time of 5.78775 on 12 procs for 51 steps with 371 atoms

Minimization stats:
  Stopping criterion = energy tolerance
  Energy initial, next-to-last, final =
  Force two-norm initial, final = 2062.1069 266.4279
  Force max component initial, final = 454.74681 141.18517
  Final line search alpha, max atom move = 0.00022884887 0.032310065
  Iterations, force evaluations = 51 138

# unfix min1
# Save the optimized structure
write_data 333U-50C-14_opt.data
System init for write_data ...

# Print system info
thermo          100
thermo_style    custom step temp press density vol pe etotal

reset_timestep 0
# Save trajectory
#dump dump1 all custom 500 dump_opt.lammpstrj id type x y z q
dump dump1 all custom 100 dump/dump_all.lammpstrj   id   type   x   y   z   q

# equilibration at low T
print "##### Equilibration starts.##### "
##### Equilibration starts.#####
velocity        all create 300 12345
fix             equil1 all npt temp 300 300 50 tri 1 1 500
# 1 ps = 1e3 fs / 0.5 fs = 2e3 steps = 20 nruns
run             5000
Step          Temp          Press         Density         Volume         PotEng         TotEng
0   300            7411.5021      1.6093426      4136.956      -43052.738     -42721.869
Averages over the last 26 of 51 rows, steps 2500 to 5000:
Temp Press Density Volume PotEng TotEng
299.713 -1142.19 1.71653 3878.77 -43213.3 -42882.8
Loop time of 229.71 on 12 procs for 5000 steps with 371 atoms

# Heat to high T
print "##### Heat starts.##### "
##### Heat starts.#####
# out put bonds and species information
fix bondinfo all reaxff/bonds 100 bonds/bonds.reaxff
fix speciesinfo all reaxff/species 10 10 100 bonds/species.out

# compute MSD and RDF
compute msd1 all msd
fix myMSD all ave/time 10 10 100 c_msd1[1] c_msd1[2] c_msd1[3] c_msd1[4] c_thermo_temp file msd.out
# compute rdf1 all rdf 100 cutoff 10.0

unfix           equil1
fix             heat1 all nvt temp 300 2100 50
thermo_style    custom step temp press pe etotal
run             180000
Step          Temp          Press          PotEng         TotEng
5000   290.17044     -11038.832     -43227.67      -42907.641
Averages over the last 901 of 1801 rows, steps 95000 to 185000:
Temp Press PotEng TotEng
1649.21 21657.5 -41652.6 -39833.7
Loop time of 8329.03 on 12 procs for 180000 steps with 371 atoms

# # final equilibration at low T
# print "##### final equilibration starts.##### "
# unfix             heat1
# # 1 ps = 1e3 fs / 0.5 fs = 2e3 steps = 20 nruns

write_data  333U-50C-14-an.data
System init for write_data ...
##### 333U-50C-14 Final Density: 1.7200786788770645597 #####

# next temperature
# clear
# next T
# jump SELF T_loop
