
#======================================================================
# CRYSTAL DATA
#----------------------------------------------------------------------
data_VESTA_phase_1

_chemical_name_common                  '333-RV-6                              '
_cell_length_a                         14.494141
_cell_length_b                         14.988417
_cell_length_c                         16.831884
_cell_angle_alpha                      88.612587
_cell_angle_beta                       86.621452
_cell_angle_gamma                      119.547798
_cell_volume                           3169.555338
_space_group_name_H-M_alt              'P 1'
_space_group_IT_number                 1

loop_
_space_group_symop_operation_xyz
   'x, y, z'

loop_
   _atom_site_label
   _atom_site_occupancy
   _atom_site_fract_x
   _atom_site_fract_y
   _atom_site_fract_z
   _atom_site_adp_type
   _atom_site_U_iso_or_equiv
   _atom_site_type_symbol
   Si1        1.0     0.943231     0.146927     0.243027    Uiso  ? Si
   Si2        1.0     0.180760     0.026260     0.443062    Uiso  ? Si
   Si3        1.0     0.014620     0.192707     0.562911    Uiso  ? Si
   Si4        1.0     0.122485     0.155189     0.323167    Uiso  ? Si
   Si5        1.0     0.173648     0.176998     0.672677    Uiso  ? Si
   Si6        1.0     0.132568     0.307556     0.119777    Uiso  ? Si
   Si7        1.0     0.150908     0.478709     0.001584    Uiso  ? Si
   Si8        1.0     0.173459     0.342662     0.423990    Uiso  ? Si
   Si9        1.0     0.161418     0.512779     0.323197    Uiso  ? Si
   Si10       1.0     0.150746     0.310020     0.807637    Uiso  ? Si
   Si11       1.0     0.969476     0.436272     0.895500    Uiso  ? Si
   Si12       1.0     0.183070     0.490790     0.707606    Uiso  ? Si
   Si13       1.0     0.134462     0.664825     0.429420    Uiso  ? Si
   Si14       1.0     0.014192     0.828272     0.551664    Uiso  ? Si
   Si15       1.0     0.181200     0.866114     0.329854    Uiso  ? Si
   Si16       1.0     0.228918     0.703314     0.766978    Uiso  ? Si
   Si17       1.0     0.192804     0.826097     0.636380    Uiso  ? Si
   Si18       1.0     0.478387     0.990116     0.096665    Uiso  ? Si
   Si19       1.0     0.328088     0.186341     0.224598    Uiso  ? Si
   Si20       1.0     0.475796     0.166021     0.006877    Uiso  ? Si
   Si21       1.0     0.351654     0.187574     0.554894    Uiso  ? Si
   Si22       1.0     0.506348     0.205686     0.322930    Uiso  ? Si
   Si23       1.0     0.297775     0.152882     0.907662    Uiso  ? Si
   Si24       1.0     0.484117     0.171094     0.681244    Uiso  ? Si
   Si25       1.0     0.515404     0.342106     0.108865    Uiso  ? Si
   Si26       1.0     0.315563     0.507528     0.190746    Uiso  ? Si
   Si27       1.0     0.529120     0.513616     0.980787    Uiso  ? Si
   Si28       1.0     0.570342     0.310290     0.471745    Uiso  ? Si
   Si29       1.0     0.471979     0.324958     0.784142    Uiso  ? Si
   Si30       1.0     0.332673     0.488573     0.894710    Uiso  ? Si
   Si31       1.0     0.328256     0.815143     0.221173    Uiso  ? Si
   Si32       1.0     0.530269     0.893642     0.952750    Uiso  ? Si
   Si33       1.0     0.504559     0.667724     0.455812    Uiso  ? Si
   Si34       1.0     0.331484     0.814747     0.506889    Uiso  ? Si
   Si35       1.0     0.513014     0.800826     0.310876    Uiso  ? Si
   Si36       1.0     0.796062     0.020037     0.112354    Uiso  ? Si
   Si37       1.0     0.638650     0.161161     0.200476    Uiso  ? Si
   Si38       1.0     0.823069     0.042992     0.477756    Uiso  ? Si
   Si39       1.0     0.656628     0.136260     0.592171    Uiso  ? Si
   Si40       1.0     0.861583     0.008027     0.768891    Uiso  ? Si
   Si41       1.0     0.842739     0.184773     0.682800    Uiso  ? Si
   Si42       1.0     0.821148     0.359196     0.127822    Uiso  ? Si
   Si43       1.0     0.667430     0.518816     0.206808    Uiso  ? Si
   Si44       1.0     0.833646     0.506079    -0.012362    Uiso  ? Si
   Si45       1.0     0.868125     0.579228     0.294986    Uiso  ? Si
   Si46       1.0     0.674245     0.481615     0.864778    Uiso  ? Si
   Si47       1.0     0.659598     0.793726     0.169289    Uiso  ? Si
   Si48       1.0     0.846138     0.721838     0.430207    Uiso  ? Si
   Si49       1.0     0.663414     0.826425     0.571554    Uiso  ? Si
   Si50       1.0     0.688361     0.832794     0.887337    Uiso  ? Si
   Si51       1.0     0.836209     0.833983     0.665802    Uiso  ? Si
   C1         1.0     0.885469     0.200552     0.315510    Uiso  ? C
   C2         1.0     0.175959     0.223766     0.072171    Uiso  ? C
   C3         1.0     0.143654     0.577699     0.060963    Uiso  ? C
   C4         1.0     0.314192     0.380833     0.429662    Uiso  ? C
   C5         1.0     0.041498     0.455080     0.267425    Uiso  ? C
   C6         1.0     0.045719     0.214821     0.880084    Uiso  ? C
   C7         1.0     0.863301     0.300596     0.918406    Uiso  ? C
   C8         1.0     0.107955     0.494499     0.624310    Uiso  ? C
   C9         1.0     0.004405     0.566824     0.477982    Uiso  ? C
   C10        1.0     0.150783     0.717944     0.852006    Uiso  ? C
   C11        1.0     0.201829     0.921196     0.706831    Uiso  ? C
   C12        1.0     0.563068     0.167816     0.921541    Uiso  ? C
   C13        1.0     0.478544     0.086298     0.377827    Uiso  ? C
   C14        1.0     0.226918     0.012433     0.894931    Uiso  ? C
   C15        1.0     0.437012     0.506759     0.215454    Uiso  ? C
   C16        1.0     0.678724     0.430812     0.505268    Uiso  ? C
   C17        1.0     0.394866     0.779851     0.962952    Uiso  ? C
   C18        1.0     0.395270     0.593565     0.534654    Uiso  ? C
   C19        1.0     0.559159     0.593479     0.404942    Uiso  ? C
   C20        1.0     0.607791     0.929253     0.341837    Uiso  ? C
   C21        1.0     0.897041     0.017031     0.040963    Uiso  ? C
   C22        1.0     0.551500     0.017750     0.553935    Uiso  ? C
   C23        1.0     0.835708     0.295203     0.721620    Uiso  ? C
   C24        1.0     0.864603     0.636275     0.014355    Uiso  ? C
   C25        1.0     0.757375     0.553403     0.772857    Uiso  ? C
   C26        1.0     0.785001     0.796670     0.193642    Uiso  ? C
   C27        1.0     0.865794     0.845110     0.386808    Uiso  ? C
   C28        1.0     0.566277     0.816603     0.652163    Uiso  ? C
   C29        1.0     0.592180     0.728804     0.828711    Uiso  ? C
   C30        1.0     0.781285     0.797590     0.931795    Uiso  ? C
   O1         1.0     0.009337     0.094813     0.282742    Uiso  ? O
   O2         1.0     0.129722     0.085066     0.395331    Uiso  ? O
   O3         1.0     0.070562     0.152402     0.624226    Uiso  ? O
   O4         1.0     0.023362     0.239627     0.177599    Uiso  ? O
   O5         1.0     0.102313     0.368886     0.053428    Uiso  ? O
   O6         1.0     0.105043     0.292307     0.509601    Uiso  ? O
   O7         1.0     0.126341     0.257769     0.356307    Uiso  ? O
   O8         1.0     0.152587     0.437234     0.399449    Uiso  ? O
   O9         1.0     0.193377     0.259801     0.738913    Uiso  ? O
   O10        1.0     0.083952     0.455338     0.922795    Uiso  ? O
   O11        1.0     0.110385     0.380975     0.761763    Uiso  ? O
   O12        1.0     0.174231     0.619516     0.356084    Uiso  ? O
   O13        1.0     0.089989     0.941709     0.507376    Uiso  ? O
   O14        1.0     0.130928     0.765613     0.392177    Uiso  ? O
   O15        1.0     0.221515     0.969965     0.379659    Uiso  ? O
   O16        1.0     0.211129     0.586894     0.765491    Uiso  ? O
   O17        1.0     0.082743     0.781977     0.590775    Uiso  ? O
   O18        1.0     0.190569     0.727779     0.682680    Uiso  ? O
   O19        1.0     0.219669     0.187488     0.254687    Uiso  ? O
   O20        1.0     0.427408     0.056771     0.060655    Uiso  ? O
   O21        1.0     0.280204     0.107228     0.490605    Uiso  ? O
   O22        1.0     0.279875     0.222648     0.609594    Uiso  ? O
   O23        1.0     0.395490     0.202200     0.302512    Uiso  ? O
   O24        1.0     0.373923     0.176417     0.981643    Uiso  ? O
   O25        1.0     0.399186     0.132035     0.611899    Uiso  ? O
   O26        1.0     0.398467     0.281811     0.158549    Uiso  ? O
   O27        1.0     0.541282     0.261026     0.064234    Uiso  ? O
   O28        1.0     0.224566     0.391576     0.171534    Uiso  ? O
   O29        1.0     0.270045     0.544692     0.266977    Uiso  ? O
   O30        1.0     0.512511     0.422125     0.043508    Uiso  ? O
   O31        1.0     0.451438     0.288935     0.507984    Uiso  ? O
   O32        1.0     0.573263     0.308375     0.373485    Uiso  ? O
   O33        1.0     0.371813     0.221120     0.827375    Uiso  ? O
   O34        1.0     0.510058     0.286486     0.704628    Uiso  ? O
   O35        1.0     0.254689     0.381827     0.855714    Uiso  ? O
   O36        1.0     0.424215     0.470162     0.931041    Uiso  ? O
   O37        1.0     0.274285     0.516215     0.968358    Uiso  ? O
   O38        1.0     0.381684     0.881846     0.136419    Uiso  ? O
   O39        1.0     0.284346     0.878025     0.275835    Uiso  ? O
   O40        1.0     0.545082     0.969286     0.025885    Uiso  ? O
   O41        1.0     0.226728     0.703946     0.492833    Uiso  ? O
   O42        1.0     0.294164     0.877378     0.568425    Uiso  ? O
   O43        1.0     0.415286     0.800943     0.267465    Uiso  ? O
   O44        1.0     0.462244     0.719439     0.389242    Uiso  ? O
   O45        1.0     0.847412     0.055728     0.198745    Uiso  ? O
   O46        1.0     0.557535     0.052312     0.164773    Uiso  ? O
   O47        1.0     0.575127     0.216931     0.238668    Uiso  ? O
   O48        1.0     0.944020     0.098790     0.507448    Uiso  ? O
   O49        1.0     0.598232     0.183185     0.651224    Uiso  ? O
   O50        1.0     0.939021     0.228486     0.611069    Uiso  ? O
   O51        1.0     0.729378     0.106161     0.646756    Uiso  ? O
   O52        1.0     0.865997     0.117007     0.748354    Uiso  ? O
   O53        1.0     0.727017     0.238081     0.130248    Uiso  ? O
   O54        1.0     0.607608     0.406558     0.168167    Uiso  ? O
   O55        1.0     0.942654     0.515074     0.945883    Uiso  ? O
   O56        1.0     0.794525     0.429064     0.067799    Uiso  ? O
   O57        1.0     0.792728     0.557143     0.220536    Uiso  ? O
   O58        1.0     0.570109     0.374778     0.842246    Uiso  ? O
   O59        1.0     0.741370     0.451931     0.924458    Uiso  ? O
   O60        1.0     0.632278     0.548396     0.916539    Uiso  ? O
   O61        1.0     0.688480     0.907560     0.131476    Uiso  ? O
   O62        1.0     0.576334     0.761542     0.249591    Uiso  ? O
   O63        1.0     0.851957     0.651741     0.358690    Uiso  ? O
   O64        1.0     0.939882     0.745768     0.490803    Uiso  ? O
   O65        1.0     0.606700     0.760613     0.496428    Uiso  ? O
   O66        1.0     0.741172     0.944906     0.537190    Uiso  ? O
   O67        1.0     0.756661     0.939192     0.829190    Uiso  ? O
   O68        1.0     0.621799     0.859300     0.956594    Uiso  ? O
   O69        1.0     0.944395     0.843803     0.623534    Uiso  ? O
   O70        1.0     0.739740     0.783539     0.606781    Uiso  ? O
   O71        1.0     0.855927     0.947523     0.687955    Uiso  ? O
   H1         1.0     0.152252     0.079745     0.713053    Uiso  ? H
   H2         1.0     0.285819     0.495875     0.682583    Uiso  ? H
   H3         1.0     0.098529     0.857627     0.278095    Uiso  ? H
   H4         1.0     0.984150     0.471849     0.810408    Uiso  ? H
   H5         1.0     0.345414     0.776003     0.769454    Uiso  ? H
   H6         1.0     0.299543     0.087835     0.188876    Uiso  ? H
   H7         1.0     0.221141     0.188266     0.926081    Uiso  ? H
   H8         1.0     0.436135     0.094507     0.749575    Uiso  ? H
   H9         1.0     0.337981     0.580579     0.121302    Uiso  ? H
   H10        1.0     0.546147     0.604575     0.023570    Uiso  ? H
   H11        1.0     0.579653     0.221102     0.500328    Uiso  ? H
   H12        1.0     0.443214     0.402285     0.758942    Uiso  ? H
   H13        1.0     0.379390     0.573685     0.833132    Uiso  ? H
   H14        1.0     0.239494     0.715768     0.201994    Uiso  ? H
   H15        1.0     0.550012     0.954935     0.876149    Uiso  ? H
   H16        1.0     0.377190     0.878205     0.431178    Uiso  ? H
   H17        1.0     0.408243     0.792810     0.544181    Uiso  ? H
   H18        1.0     0.763104     0.092511     0.081577    Uiso  ? H
   H19        1.0     0.690761     0.138371     0.263832    Uiso  ? H
   H20        1.0     0.831392     0.009608     0.397307    Uiso  ? H
   H21        1.0     0.782975     0.116798     0.476998    Uiso  ? H
   H22        1.0     0.729599     0.220739     0.532937    Uiso  ? H
   H23        1.0     0.958616     0.027556     0.806802    Uiso  ? H
   H24        1.0     0.922471     0.365009     0.098362    Uiso  ? H
   H25        1.0     0.826803     0.394861     0.209733    Uiso  ? H
   H26        1.0     0.613238     0.511711     0.285543    Uiso  ? H
   H27        1.0     0.667680     0.595098     0.148796    Uiso  ? H
   H28        1.0     0.979898     0.633002     0.259422    Uiso  ? H
   H29        1.0     0.839392     0.479675     0.337556    Uiso  ? H
   H30        1.0     0.602079     0.717821     0.110039    Uiso  ? H
   H31        1.0     0.744281     0.659993     0.478766    Uiso  ? H
   H32        1.0     0.808150     0.767577     0.739608    Uiso  ? H
   H33        1.0     0.809166     0.140409     0.343846    Uiso  ? H
   H34        1.0     0.870009     0.256039     0.283786    Uiso  ? H
   H35        1.0     0.938878     0.240873     0.361747    Uiso  ? H
   H36        1.0     0.131507     0.191249     0.020121    Uiso  ? H
   H37        1.0     0.162368     0.160042     0.113599    Uiso  ? H
   H38        1.0     0.260891     0.266543     0.052129    Uiso  ? H
   H39        1.0     0.179248     0.652041     0.026923    Uiso  ? H
   H40        1.0     0.185993     0.589768     0.115049    Uiso  ? H
   H41        1.0     0.060210     0.553954     0.078472    Uiso  ? H
   H42        1.0     0.362298     0.444205     0.385288    Uiso  ? H
   H43        1.0     0.327888     0.317120     0.414939    Uiso  ? H
   H44        1.0     0.343110     0.405150     0.488259    Uiso  ? H
   H45        1.0     0.032097     0.389030     0.234999    Uiso  ? H
   H46        1.0     0.046415     0.513784     0.224363    Uiso  ? H
   H47        1.0     0.970080     0.430408     0.308220    Uiso  ? H
   H48        1.0     0.061136     0.152055     0.895185    Uiso  ? H
   H49        1.0     0.967130     0.181890     0.857354    Uiso  ? H
   H50        1.0     0.044806     0.253049     0.934675    Uiso  ? H
   H51        1.0     0.869194     0.248570     0.876398    Uiso  ? H
   H52        1.0     0.784569     0.293689     0.915833    Uiso  ? H
   H53        1.0     0.868470     0.274148     0.978628    Uiso  ? H
   H54        1.0     0.086704     0.428405     0.587804    Uiso  ? H
   H55        1.0     0.155353     0.565612     0.586746    Uiso  ? H
   H56        1.0     0.034395     0.492695     0.647156    Uiso  ? H
   H57        1.0     0.006843     0.496340     0.493058    Uiso  ? H
   H58        1.0     0.940548     0.547661     0.438357    Uiso  ? H
   H59        1.0    -0.015257     0.594193     0.532778    Uiso  ? H
   H60        1.0     0.161355     0.688100     0.908794    Uiso  ? H
   H61        1.0     0.065367     0.676297     0.843234    Uiso  ? H
   H62        1.0     0.175404     0.799529     0.857350    Uiso  ? H
   H63        1.0     0.209862    -0.010257     0.675471    Uiso  ? H
   H64        1.0     0.271006     0.945996     0.741868    Uiso  ? H
   H65        1.0     0.129473     0.887977     0.747799    Uiso  ? H
   H66        1.0     0.601531     0.242160     0.887469    Uiso  ? H
   H67        1.0     0.517617     0.107211     0.881316    Uiso  ? H
   H68        1.0     0.624535     0.152944     0.943167    Uiso  ? H
   H69        1.0     0.553231     0.092116     0.394657    Uiso  ? H
   H70        1.0     0.440377     0.021944     0.339150    Uiso  ? H
   H71        1.0     0.424432     0.068279     0.431504    Uiso  ? H
   H72        1.0     0.281780     0.983923     0.878290    Uiso  ? H
   H73        1.0     0.168884    -0.008712     0.849982    Uiso  ? H
   H74        1.0     0.183852    -0.026639     0.952534    Uiso  ? H
   H75        1.0     0.489219     0.577924     0.243365    Uiso  ? H
   H76        1.0     0.478876     0.504004     0.159977    Uiso  ? H
   H77        1.0     0.418902     0.439926     0.254983    Uiso  ? H
   H78        1.0     0.755254     0.433479     0.491716    Uiso  ? H
   H79        1.0     0.666885     0.432718     0.570232    Uiso  ? H
   H80        1.0     0.683867     0.499868     0.476834    Uiso  ? H
   H81        1.0     0.383121     0.731554     0.016920    Uiso  ? H
   H82        1.0     0.380938     0.732427     0.911426    Uiso  ? H
   H83        1.0     0.334702     0.804347    -0.033068    Uiso  ? H
   H84        1.0     0.410899     0.539859     0.569136    Uiso  ? H
   H85        1.0     0.318137     0.549638     0.509618    Uiso  ? H
   H86        1.0     0.388012     0.645161     0.576505    Uiso  ? H
   H87        1.0     0.506786     0.541662     0.362815    Uiso  ? H
   H88        1.0     0.574058     0.547411     0.448574    Uiso  ? H
   H89        1.0     0.634925     0.646797     0.371294    Uiso  ? H
   H90        1.0     0.646443     0.984361     0.290295    Uiso  ? H
   H91        1.0     0.669639     0.923561     0.372511    Uiso  ? H
   H92        1.0     0.568266     0.958014     0.382803    Uiso  ? H
   H93        1.0     0.870502     0.006395     0.980458    Uiso  ? H
   H94        1.0     0.915590     0.956643     0.057726    Uiso  ? H
   H95        1.0     0.970748     0.091282     0.039708    Uiso  ? H
   H96        1.0     0.506428     0.966020     0.606376    Uiso  ? H
   H97        1.0     0.582284     0.978996     0.515333    Uiso  ? H
   H98        1.0     0.496262     0.033103     0.522741    Uiso  ? H
   H99        1.0     0.821409     0.334605     0.671790    Uiso  ? H
   H100       1.0     0.910547     0.350221     0.745052    Uiso  ? H
   H101       1.0     0.769970     0.271357     0.767798    Uiso  ? H
   H102       1.0     0.898552     0.691430     0.962305    Uiso  ? H
   H103       1.0     0.923903     0.661898     0.058845    Uiso  ? H
   H104       1.0     0.794536     0.638199     0.040491    Uiso  ? H
   H105       1.0     0.712837     0.573002     0.731865    Uiso  ? H
   H106       1.0     0.783950     0.505266     0.741762    Uiso  ? H
   H107       1.0     0.828641     0.624992     0.785512    Uiso  ? H
   H108       1.0     0.824702     0.785488     0.140152    Uiso  ? H
   H109       1.0     0.771389     0.736765     0.239052    Uiso  ? H
   H110       1.0     0.840007     0.871324     0.216213    Uiso  ? H
   H111       1.0     0.890767     0.901645     0.432578    Uiso  ? H
   H112       1.0     0.792840     0.837695     0.364549    Uiso  ? H
   H113       1.0     0.928388     0.876894     0.337425    Uiso  ? H
   H114       1.0     0.522833     0.737855     0.679238    Uiso  ? H
   H115       1.0     0.507682     0.834505     0.629459    Uiso  ? H
   H116       1.0     0.606014     0.869388     0.698723    Uiso  ? H
   H117       1.0     0.553753     0.656004     0.864706    Uiso  ? H
   H118       1.0     0.630556     0.717149     0.774864    Uiso  ? H
   H119       1.0     0.529711     0.744358     0.810719    Uiso  ? H
   H120       1.0     0.797219     0.749952     0.890816    Uiso  ? H
   H121       1.0     0.745505     0.751486     0.988187    Uiso  ? H
   H122       1.0     0.857371     0.864587     0.942910    Uiso  ? H
