LAMMPS (2 Aug 2023 - Update 2)
# Initialization
units           real
dimension       3
boundary        p p p
atom_style      full
timestep        0.5   # fs

variable       Tl equal 300.0   # low temperature
variable       Th equal 2200.0  # high temperature
variable       Td equal 50.0  # damping time
variable       P equal 1.0  # pressure
variable       Ph equal 1.0  # pressure
variable       Pd equal 10*50
variable       nrun equal 100  # number of steps
variable       nequil equal 50*100
variable       nheat equal 20*100
variable       ncool equal 100*100
variable       nthermo equal 100

# Read the initial sctructure
# box tilt large
variable structure string 333-HD-100C-14-VASP
read_data       333-HD-100C-14-VASP.data
Reading data file ...
  triclinic box = (0 0 0) to (15.724 13.9031 17.2465) with tilt (-7.584 0.1778 0.4371)
  reading atoms ...
  366 atoms
Finding 1-2 1-3 1-4 neighbors ...
     0 = max # of 1-2 neighbors
     0 = max # of 1-3 neighbors
     0 = max # of 1-4 neighbors
     1 = max # of special neighbors

# Assign the force field
pair_style reaxff NULL safezone 3.0 mincap 150
# pair_coeff * * CHONSSi.ff O Si
# pair_coeff * * CHOSiNa.ff O Si
# pair_coeff * * SiOCHN_2018.ff C H O Si
# pair_coeff * * PDMSDecomp.ff Si O
pair_coeff * * CHONSi.ff C H O Si
# pair_coeff * * CHOFe.ff O Si

fix myqeq all qeq/reaxff 1 0.0 10.0 1.0e-6 reaxff maxiter 400
fix bondinfo all reaxff/bonds 100 bonds.reaxff

neighbor        2 bin
neigh_modify    every 10 delay 0 check no

# Print system info
thermo          100
thermo_style    custom step temp press density pe etotal

# Energy minimization
print "*****Minimization starts.*****"
*****Minimization starts.*****
fix min1 all nve
minimize 1.0e-6 1.0e-6 100 1000

CITE-CITE-CITE-CITE-CITE-CITE-CITE-CITE-CITE-CITE-CITE-CITE-CITE

Your simulation uses code contributions which should be cited:

- pair reaxff command: doi:10.1016/j.parco.2011.08.005

@Article{Aktulga12,
 author = {H. M. Aktulga and J. C. Fogarty and S. A. Pandit and A. Y. Grama},
 title = {Parallel Reactive Molecular Dynamics: {N}umerical Methods and Algorithmic Techniques},
 journal = {Parallel Computing},
 year =    2012,
 volume =  38,
 number =  {4--5},
 pages =   {245--259}
}

- fix qeq/reaxff command: doi:10.1016/j.parco.2011.08.005

@Article{Aktulga12,
 author = {H. M. Aktulga and J. C. Fogarty and S. A. Pandit and A. Y. Grama},
 title = {Parallel Reactive Molecular Dynamics: {N}umerical Methods and Algorithmic Techniques},
 journal = {Parallel Computing},
 year =    2012,
 volume =  38,
 pages =   {245--259}
}

CITE-CITE-CITE-CITE-CITE-CITE-CITE-CITE-CITE-CITE-CITE-CITE-CITE

Step          Temp          Press         Density         PotEng         TotEng
0   0              39442.068      1.8952586     -43579.409     -43579.409
Loop time of 55.7632 on 1 procs for 34 steps with 366 atoms

Minimization stats:
  Stopping criterion = energy tolerance
  Energy initial, next-to-last, final =
  Force two-norm initial, final = 1077.9481 173.6803
  Force max component initial, final = 155.70774 60.295224
  Final line search alpha, max atom move = 0.0013855813 0.083543936
  Iterations, force evaluations = 34 93

unfix min1
# Save the optimized structure
write_data 333-HD-100C-14-VASP_opt.data
System init for write_data ...

reset_timestep 0
# Save trajectory
#dump dump1 all custom 500 dump_opt.lammpstrj id type x y z q
dump dump1 all custom 100 dump_all.lammpstrj   id   type   x   y   z   q

# equilibration at low T
print "*****Equilibration starts.*****"
*****Equilibration starts.*****
velocity        all create 300 12345
fix             equil1 all npt temp 300 300 50 tri 1 1 500
# 1 ps : 1e3 fs / 0.5 fs = 2e3 steps
run             5000
Step          Temp          Press         Density         PotEng         TotEng
0   300           -2822.9716      1.8952586     -44450.235     -44123.836
Averages over the last 26 of 51 rows, steps 2500 to 5000:
Temp Press Density PotEng TotEng
303.45 -364.768 1.92905 -44406.5 -44076.3
Loop time of 2800.19 on 1 procs for 5000 steps with 366 atoms

# Heat to high T
print "*****Heat starts.*****"
*****Heat starts.*****
unfix           equil1
fix             heat1 all nvt temp 300 2200 50
# 1 ps : 1e3 fs / 0.5 fs = 2e3 steps
run             2000
Step          Temp          Press         Density         PotEng         TotEng
5000   303.61394     -5083.7438      1.923771      -44391.051     -44060.72
Averages over the last 11 of 21 rows, steps 6000 to 7000:
Temp Press Density PotEng TotEng
1710.14 24878.7 1.92377 -42691.7 -40831.1
Loop time of 1067.46 on 1 procs for 2000 steps with 366 atoms

# middle equilibration at high T
print "*****Middle equilibration starts.*****"
*****Middle equilibration starts.*****
velocity        all create 300 12345
unfix             heat1
fix             equil2 all nvt temp 2200 2200 50
# 1 ps : 1e3 fs / 0.5 fs = 2e3 steps

# cool down to low T
print "*****Cool starts.*****"
*****Cool starts.*****
unfix           equil2
fix             cool1 all nvt temp 2200 300 50
# 1 ps : 1e3 fs / 0.5 fs = 2e3 steps
run             10000
Step          Temp          Press         Density         PotEng         TotEng
7000   300            50446.466      1.923771      -42008.797     -41682.398
Averages over the last 51 of 101 rows, steps 12000 to 17000:
Temp Press Density PotEng TotEng
785.273 13204.3 1.92377 -43722.4 -42868
Loop time of 4910.08 on 1 procs for 10000 steps with 366 atoms

# final equilibration at low T
print "*****final equilibration starts.*****"
*****final equilibration starts.*****
unfix             cool1
fix             equil3 all npt temp 300 300 50 tri 1 1 500
# 1 ps : 1e3 fs / 0.5 fs = 2e3 steps
run             5000
Step          Temp          Press         Density         PotEng         TotEng
17000   306.75589     -8452.7959      1.923771      -44332.675     -43998.926
Averages over the last 26 of 51 rows, steps 19500 to 22000:
Temp Press Density PotEng TotEng
300.601 -61.8158 1.91989 -44400.8 -44073.7
Loop time of 889.251 on 1 procs for 5000 steps with 366 atoms

write_data  333-HD-100C-14-VASP-an.data
System init for write_data ...
