LAMMPS (2 Aug 2023 - Update 2)

# variable T index 300 400 500  #
# label T_loop

# Initialization
units           real
dimension       3
boundary        p p p
atom_style      full
timestep        0.5   # fs

variable       Tl equal 900.0   # low temperature
variable       Th equal 2100.0  # high temperature
variable       Td equal 50.0  # damping time
variable       P equal 1.0  # pressure
variable       Ph equal 1.0  # pressure
variable       Pd equal 10*50

variable       nevery equal 1000
variable       nrepeat equal 1
variable       nfreq equal 1000*1
variable       nthermo equal 1000/10
variable       nequil equal 100*100
variable       nheat equal 1200*100

# Read the initial sctructure
# box tilt large
variable structure string SiO2
read_data       SiO2.data
Reading data file ...
  triclinic box = (0 0 0) to (14.6913 12.723 15.9631) with tilt (-7.3456 0 0)
  reading atoms ...
  243 atoms
Finding 1-2 1-3 1-4 neighbors ...
     0 = max # of 1-2 neighbors
     0 = max # of 1-3 neighbors
     0 = max # of 1-4 neighbors
     1 = max # of special neighbors

# Assign the force field
pair_style reaxff NULL safezone 3.0 mincap 150
# pair_coeff * * CHONSSi.ff O Si
# pair_coeff * * CHOSiNa.ff O Si
# pair_coeff * * SiOCHN_2018.ff C H O Si
# pair_coeff * * PDMSDecomp.ff Si O
# pair_coeff * * CHONSi.ff C H O Si
pair_coeff * * CHOFe.ff O Si

fix myqeq all qeq/reaxff 1 0.0 10.0 1.0e-6 reaxff maxiter 400

neighbor        2 bin
neigh_modify    every 10 delay 0 check yes

# Energy minimization
print "##### Minimization starts.##### "
##### Minimization starts.#####
# fix min1 all nve
minimize 1.0e-6 1.0e-6 100 1000

CITE-CITE-CITE-CITE-CITE-CITE-CITE-CITE-CITE-CITE-CITE-CITE-CITE

Your simulation uses code contributions which should be cited:

- pair reaxff command: doi:10.1016/j.parco.2011.08.005

@Article{Aktulga12,
 author = {H. M. Aktulga and J. C. Fogarty and S. A. Pandit and A. Y. Grama},
 title = {Parallel Reactive Molecular Dynamics: {N}umerical Methods and Algorithmic Techniques},
 journal = {Parallel Computing},
 year =    2012,
 volume =  38,
 number =  {4--5},
 pages =   {245--259}
}

- fix qeq/reaxff command: doi:10.1016/j.parco.2011.08.005

@Article{Aktulga12,
 author = {H. M. Aktulga and J. C. Fogarty and S. A. Pandit and A. Y. Grama},
 title = {Parallel Reactive Molecular Dynamics: {N}umerical Methods and Algorithmic Techniques},
 journal = {Parallel Computing},
 year =    2012,
 volume =  38,
 pages =   {245--259}
}

CITE-CITE-CITE-CITE-CITE-CITE-CITE-CITE-CITE-CITE-CITE-CITE-CITE

Step          Temp          E_pair         E_mol          TotEng         Press
0   0             -36881.566      0             -36881.566      18239.168
Loop time of 2.26701 on 12 procs for 6 steps with 243 atoms

Minimization stats:
  Stopping criterion = energy tolerance
  Energy initial, next-to-last, final =
  Force two-norm initial, final = 103.62827 45.838785
  Force max component initial, final = 10.335104 4.0136737
  Final line search alpha, max atom move = 3.5666438e-09 1.4315345e-08
  Iterations, force evaluations = 6 55

# unfix min1
# Save the optimized structure
write_data SiO2_opt.data
System init for write_data ...

# Print system info
thermo          100
thermo_style    custom step temp press density vol pe etotal

reset_timestep 0

# equilibration at low T
print "##### Equilibration starts.##### "
##### Equilibration starts.#####
velocity        all create 900 12345
fix             equil1 all npt temp 900 900 50 tri 1 1 500
# 1 ps = 1e3 fs / 0.5 fs = 2e3 steps = 20 nruns
# Save trajectory
dump dump1 all custom 100 dump/dump_eq.lammpstrj id type x y z q
run             10000
Step          Temp          Press         Density         Volume         PotEng         TotEng
0   900            20366.522      2.8878482      2983.7813     -36912.748     -36263.528
Averages over the last 51 of 101 rows, steps 5000 to 10000:
Temp Press Density Volume PotEng TotEng
898.425 203.895 2.58171 3338.09 -36177.3 -35529.2
Loop time of 330.857 on 12 procs for 10000 steps with 243 atoms

undump dump1
reset_timestep  0

# Heat to high T
print "##### Heat starts.##### "
##### Heat starts.#####
# out put bonds and species information
fix bondinfo all reaxff/bonds 100 bonds/bonds.reaxff

# compute MSD and RDF
compute msd1 all msd
fix myMSD all ave/time 100 1 100 c_msd1[1] c_msd1[2] c_msd1[3] c_msd1[4] c_thermo_temp     file msd.out     title2 "# TimeStep MSD_X MSD_Y MSD_Z MSD_Total Temperture"
# C-C C-Si Si-O C-H Si-Si
compute rdf1 all rdf 100 1 2 2 2 1 1 cutoff 5.0
fix myRDF all ave/time 100 1 100 c_rdf1[*]     file rdf.out mode vector     title3 "# Row r g1(r) coor1(r) ..."

unfix           equil1
fix             heat1 all nvt temp 900 2100 50
thermo_style    custom step temp press pe etotal
dump dump2 all custom 100 dump/dump_heat.lammpstrj   id   type   x   y   z   q

run             120000
Step          Temp          Press          PotEng         TotEng
0   902.9776       8140.3322     -36215.59      -35564.221
Averages over the last 601 of 1201 rows, steps 60000 to 120000:
Temp Press PotEng TotEng
1797.93 46608.9 -35524.4 -34227.4
Loop time of 5585.78 on 12 procs for 120000 steps with 243 atoms

# # final equilibration at low T
# print "##### final equilibration starts.##### "
# unfix             heat1
# # 1 ps = 1e3 fs / 0.5 fs = 2e3 steps = 20 nruns

write_data  SiO2-an.data
System init for write_data ...
##### SiO2 Final Density: 2.6782836534074734303 #####
