LAMMPS (2 Aug 2023 - Update 2)
# Initialization
units           real
dimension       3
boundary        p p p
atom_style      full
timestep        0.5   # fs

# Define MD parameters
variable nevery equal 10                  # sampling interval
variable nrepeat equal 10                 # number of samples
variable nfreq equal 10*10
variable nthermo equal 100
# 1 ps : 1e3 fs / 0.5 fs = 2e3 steps
variable nequil equal 20*100
variable nrun equal 20*100
variable temp equal 300.0                # temperature of initial sample
variable tdamp equal 50.0                 # time constant for thermostat
variable seed equal 123457                # seed for thermostat
variable ufac equal 1.01325e-4         # pressure unit conversion, from atm to Gpa
variable up equal 0.01                  # the deformation magnitude 2.0e-2

# Read the initial sctructure
# box tilt large
variable structure string 333SiCOH
read_data       333SiCOH.data
Reading data file ...
  triclinic box = (0 0 0) to (19.0492 14.0575 17.55) with tilt (-10.7944 1.3894 -3.3406)
  reading atoms ...
  373 atoms
Finding 1-2 1-3 1-4 neighbors ...
     0 = max # of 1-2 neighbors
     0 = max # of 1-3 neighbors
     0 = max # of 1-4 neighbors
     1 = max # of special neighbors

# Energy minimization
print "*****Minimization starts.*****"
*****Minimization starts.*****
minimize 1.0e-6 1.0e-6 100 1000
Step          Temp          E_pair         E_mol          TotEng         Press
0   0              0              0              0              0
Loop time of 9.09767e-05 on 8 procs for 1 steps with 373 atoms

Minimization stats:
  Stopping criterion = search direction is not downhill
  Energy initial, next-to-last, final =
  Force two-norm initial, final = 0 0
  Force max component initial, final = 0 0
  Final line search alpha, max atom move = 0 0
  Iterations, force evaluations = 1 0

min_style cg
velocity        all create 300 123457 dist gaussian

# Equilibration
include ff.mod.lmp
# Setup forcefield, system
# undefine any fix ave/* fix before using reset_timestep
if "$(is_defined(fix,avgp))" then "unfix avgp"
reset_timestep 0

# Assign the force field
pair_style reaxff NULL safezone 3.0 mincap 150
# pair_coeff * * CHONSSi.ff O Si
# pair_coeff * * CHOSiNa.ff O Si
# pair_coeff * * SiOCHN_2018.ff O Si
# pair_coeff * * PDMSDecomp.ff Si O
pair_coeff * * CHONSi.ff C H O Si
# pair_coeff * * CHOFe.ff O Si

# charge method for reaxff
fix myqeq all qeq/reaxff 1 0.0 10.0 1.0e-6 reaxff maxiter 400
# Setup neighbor style
neighbor        2 bin
neigh_modify    every 10 delay 0 check no

# Setup output
fix avgp all ave/time  10 10 100 c_thermo_press mode vector
thermo		100
thermo_style custom step temp pe press f_avgp[1] vol
thermo_modify norm no

# equilibration
fix 4 all nvt temp 300 300 50

thermo_style custom step temp pe press f_avgp[1] density vol
run 2000

CITE-CITE-CITE-CITE-CITE-CITE-CITE-CITE-CITE-CITE-CITE-CITE-CITE

Your simulation uses code contributions which should be cited:

- pair reaxff command: doi:10.1016/j.parco.2011.08.005

@Article{Aktulga12,
 author = {H. M. Aktulga and J. C. Fogarty and S. A. Pandit and A. Y. Grama},
 title = {Parallel Reactive Molecular Dynamics: {N}umerical Methods and Algorithmic Techniques},
 journal = {Parallel Computing},
 year =    2012,
 volume =  38,
 number =  {4--5},
 pages =   {245--259}
}

- fix qeq/reaxff command: doi:10.1016/j.parco.2011.08.005

@Article{Aktulga12,
 author = {H. M. Aktulga and J. C. Fogarty and S. A. Pandit and A. Y. Grama},
 title = {Parallel Reactive Molecular Dynamics: {N}umerical Methods and Algorithmic Techniques},
 journal = {Parallel Computing},
 year =    2012,
 volume =  38,
 pages =   {245--259}
}

CITE-CITE-CITE-CITE-CITE-CITE-CITE-CITE-CITE-CITE-CITE-CITE-CITE

Step          Temp          PotEng         Press        f_avgp[1]       Density         Volume
0   300           -37805.726      120410.25      0              1.1428982      4699.6115
Averages over the last 11 of 21 rows, steps 1000 to 2000:
Temp PotEng Press f_avgp[1] Density Volume
305.074 -40415.1 -1377.35 -2870.51 1.1429 4699.61
Loop time of 43.4347 on 8 procs for 2000 steps with 373 atoms

# Save the optimized structure
write_data 333SiCOH_opt.data
System init for write_data ...

# Save initial pressure, box size
variable pxx0 equal f_avgp[1]
variable pyy0 equal f_avgp[2]
variable pzz0 equal f_avgp[3]
variable pxy0 equal f_avgp[4]
variable pxz0 equal f_avgp[5]
variable pyz0 equal f_avgp[6]

# use tmp to save initial box length
variable tmp equal lx
variable lx0 equal 19.0492
variable tmp equal ly
variable ly0 equal 14.0575
variable tmp equal lz
variable lz0 equal 17.55

# define the derivatives, w.r.t. strain tensor
# Constants uses $, variables use v_
variable d1 equal -(v_pxx1-504.5832513659)/(v_delta/v_len0)*0.000101325
variable d2 equal -(v_pyy1--2132.48321742359)/(v_delta/v_len0)*0.000101325
variable d3 equal -(v_pzz1-3270.12669728435)/(v_delta/v_len0)*0.000101325
variable d4 equal -(v_pyz1-1494.22124125237)/(v_delta/v_len0)*0.000101325*0.5
variable d5 equal -(v_pxz1--767.303950747086)/(v_delta/v_len0)*0.000101325*0.5
variable d6 equal -(v_pxy1-150.532010756433)/(v_delta/v_len0)*0.000101325*0.5

# Write restart
write_restart equil.res
System init for write_restart ...

# dir: direction
# uxx Perturbation
variable dir equal 1
include displace.mod.lmp
# Find which reference length to use
variable len0 equal 19.0492

# Reset box and simulation parameters
clear
# box tilt large
read_restart equil.res
Reading restart file ...
  restart file = 2 Aug 2023, LAMMPS = 2 Aug 2023
  restoring atom style full from restart
  triclinic box = (0 0 0) to (19.0492 14.0575 17.55) with tilt (-10.7944 1.3894 -3.3406)
  pair style reaxff stores no restart info
  373 atoms
Finding 1-2 1-3 1-4 neighbors ...
     0 = max # of 1-2 neighbors
     0 = max # of 1-3 neighbors
     0 = max # of 1-4 neighbors
     1 = max # of special neighbors
  read_restart CPU = 0.002 seconds

# Negative deformation
variable delta equal -0.01*19.0492
variable deltaxy equal -0.01*xy
variable deltaxz equal -0.01*xz
variable deltayz equal -0.01*yz
fix deform_n all deform 100 x delta 0 -0.190492 xy delta 0.107944 xz delta -0.013894 remap x units box

# Run MD for Negative deformation
*****Negative-deform 1 starts.*****
include ff.mod.lmp
# Setup forcefield, system
# undefine any fix ave/* fix before using reset_timestep
if "$(is_defined(fix,avgp))" then "unfix avgp"
reset_timestep 0

# Assign the force field
pair_style reaxff NULL safezone 3.0 mincap 150
# pair_coeff * * CHONSSi.ff O Si
# pair_coeff * * CHOSiNa.ff O Si
# pair_coeff * * SiOCHN_2018.ff O Si
# pair_coeff * * PDMSDecomp.ff Si O
pair_coeff * * CHONSi.ff C H O Si
# pair_coeff * * CHOFe.ff O Si

# charge method for reaxff
fix myqeq all qeq/reaxff 1 0.0 10.0 1.0e-6 reaxff maxiter 400
# Setup neighbor style
neighbor        2 bin
neigh_modify    every 10 delay 0 check no

# Setup output
fix avgp all ave/time  10 10 100 c_thermo_press mode vector
thermo		100
thermo_style custom step temp pe press f_avgp[1] vol
thermo_modify norm no

# equilibration
fix 4 all nvt temp 300 300 50
  fix style: nvt, fix ID: 4

# save trajectory
dump dump_neg1 all custom 100 dump/neg_deform1.lammpstrj id type x y z
variable dir1 equal 1
run 2000
All restart file global fix info was re-assigned
Step          Temp          PotEng         Press        f_avgp[1]        Volume
0   294.19945     -40475.217     -2480.3296      0              4699.6115
Averages over the last 11 of 21 rows, steps 1000 to 2000:
Temp PotEng Press f_avgp[1] Volume
296.578 -40541.6 -4437.04 -3614.49 4664.36
Loop time of 42.88 on 8 procs for 2000 steps with 373 atoms

# Obtain new stress tensor Negative deformation
variable pxx1 equal f_avgp[1]
variable pyy1 equal f_avgp[2]
variable pzz1 equal f_avgp[3]
variable pxy1 equal f_avgp[4]
variable pxz1 equal f_avgp[5]
variable pyz1 equal f_avgp[6]

# Compute elastic constant from pressure
# d1 = -[pxx1-pxx0]/[(]v_delta/v_len0] defined in input script
variable C1neg equal -72.2090908451998
variable C2neg equal -38.3319571787656
variable C3neg equal -100.448090142109
variable C4neg equal -6.53210707931694
variable C5neg equal 5.98106679598773
variable C6neg equal -2.48567400242384

# Reset box and simulation parameters
clear
# box tilt large
read_restart equil.res
Reading restart file ...
  restart file = 2 Aug 2023, LAMMPS = 2 Aug 2023
  restoring atom style full from restart
  triclinic box = (0 0 0) to (19.0492 14.0575 17.55) with tilt (-10.7944 1.3894 -3.3406)
  pair style reaxff stores no restart info
  373 atoms
Finding 1-2 1-3 1-4 neighbors ...
     0 = max # of 1-2 neighbors
     0 = max # of 1-3 neighbors
     0 = max # of 1-4 neighbors
     1 = max # of special neighbors
  read_restart CPU = 0.002 seconds

# Positive deformation
variable delta equal 0.01*19.0492
variable deltaxy equal 0.01*xy
variable deltaxz equal 0.01*xz
variable deltayz equal 0.01*yz
fix deform_p all deform 100 x delta 0 0.190492 xy delta -0.107944 xz delta 0.013894 remap x units box

# Run deformation MD
*****Positive-deform 1 starts.*****
include ff.mod.lmp
# Setup forcefield, system
# undefine any fix ave/* fix before using reset_timestep
if "$(is_defined(fix,avgp))" then "unfix avgp"
reset_timestep 0

# Assign the force field
pair_style reaxff NULL safezone 3.0 mincap 150
# pair_coeff * * CHONSSi.ff O Si
# pair_coeff * * CHOSiNa.ff O Si
# pair_coeff * * SiOCHN_2018.ff O Si
# pair_coeff * * PDMSDecomp.ff Si O
pair_coeff * * CHONSi.ff C H O Si
# pair_coeff * * CHOFe.ff O Si

# charge method for reaxff
fix myqeq all qeq/reaxff 1 0.0 10.0 1.0e-6 reaxff maxiter 400
# Setup neighbor style
neighbor        2 bin
neigh_modify    every 10 delay 0 check no

# Setup output
fix avgp all ave/time  10 10 100 c_thermo_press mode vector
thermo		100
thermo_style custom step temp pe press f_avgp[1] vol
thermo_modify norm no

# equilibration
fix 4 all nvt temp 300 300 50
  fix style: nvt, fix ID: 4

# save trajectory
dump dump_pos1 all custom 100 dump/pos_deform1.lammpstrj id type x y z
variable dir1 equal 1
run 2000
All restart file global fix info was re-assigned
Step          Temp          PotEng         Press        f_avgp[1]        Volume
0   294.19945     -40475.217     -2480.3296      0              4699.6115
Averages over the last 11 of 21 rows, steps 1000 to 2000:
Temp PotEng Press f_avgp[1] Volume
298.051 -40523.2 -336.989 -4003.01 4734.86
Loop time of 42.2424 on 8 procs for 2000 steps with 373 atoms

# Obtain new stress tensor
variable pxx1 equal f_avgp[1]
variable pyy1 equal f_avgp[2]
variable pzz1 equal f_avgp[3]
variable pxy1 equal f_avgp[4]
variable pxz1 equal f_avgp[5]
variable pyz1 equal f_avgp[6]

# Compute elastic constant from pressure tensor
# d1 = -[pxx1-pxx0]/[(]v_delta/v_len0] defined in input script
variable C1pos equal 72.7912367549946
variable C2pos equal -22.8470856374365
variable C3pos equal 65.5994261606647
variable C4pos equal 16.4835164662354
variable C5pos equal 1.69467337274083
variable C6pos equal -0.230989300599879

# Combine positive and negative
variable C11 equal 0.5*(-72.2090908451998+72.7912367549946)
variable C21 equal 0.5*(-38.3319571787656+-22.8470856374365)
variable C31 equal 0.5*(-100.448090142109+65.5994261606647)
variable C41 equal 0.5*(-6.53210707931694+16.4835164662354)
variable C51 equal 0.5*(5.98106679598773+1.69467337274083)
variable C61 equal 0.5*(-2.48567400242384+-0.230989300599879)

# Delete dir to make sure it is not reused
variable dir delete
# uyy Perturbation
variable dir equal 2
include displace.mod.lmp
# Find which reference length to use
variable len0 equal 14.0575

# Reset box and simulation parameters
clear
# box tilt large
read_restart equil.res
Reading restart file ...
  restart file = 2 Aug 2023, LAMMPS = 2 Aug 2023
  restoring atom style full from restart
  triclinic box = (0 0 0) to (19.0492 14.0575 17.55) with tilt (-10.7944 1.3894 -3.3406)
  pair style reaxff stores no restart info
  373 atoms
Finding 1-2 1-3 1-4 neighbors ...
     0 = max # of 1-2 neighbors
     0 = max # of 1-3 neighbors
     0 = max # of 1-4 neighbors
     1 = max # of special neighbors
  read_restart CPU = 0.002 seconds

# Negative deformation
variable delta equal -0.01*14.0575
variable deltaxy equal -0.01*xy
variable deltaxz equal -0.01*xz
variable deltayz equal -0.01*yz
fix deform_n all deform 100 y delta 0 -0.140575 yz delta 0.033406 remap x units box

# Run MD for Negative deformation
*****Negative-deform 2 starts.*****
include ff.mod.lmp
# Setup forcefield, system
# undefine any fix ave/* fix before using reset_timestep
if "$(is_defined(fix,avgp))" then "unfix avgp"
reset_timestep 0

# Assign the force field
pair_style reaxff NULL safezone 3.0 mincap 150
# pair_coeff * * CHONSSi.ff O Si
# pair_coeff * * CHOSiNa.ff O Si
# pair_coeff * * SiOCHN_2018.ff O Si
# pair_coeff * * PDMSDecomp.ff Si O
pair_coeff * * CHONSi.ff C H O Si
# pair_coeff * * CHOFe.ff O Si

# charge method for reaxff
fix myqeq all qeq/reaxff 1 0.0 10.0 1.0e-6 reaxff maxiter 400
# Setup neighbor style
neighbor        2 bin
neigh_modify    every 10 delay 0 check no

# Setup output
fix avgp all ave/time  10 10 100 c_thermo_press mode vector
thermo		100
thermo_style custom step temp pe press f_avgp[1] vol
thermo_modify norm no

# equilibration
fix 4 all nvt temp 300 300 50
  fix style: nvt, fix ID: 4

# save trajectory
dump dump_neg2 all custom 100 dump/neg_deform2.lammpstrj id type x y z
variable dir1 equal 2
run 2000
All restart file global fix info was re-assigned
Step          Temp          PotEng         Press        f_avgp[1]        Volume
0   294.19945     -40475.217     -2480.3296      0              4699.6115
Averages over the last 11 of 21 rows, steps 1000 to 2000:
Temp PotEng Press f_avgp[1] Volume
300.164 -40528.6 -3256.53 -3683.42 4664.36
Loop time of 42.8897 on 8 procs for 2000 steps with 373 atoms

# Obtain new stress tensor Negative deformation
variable pxx1 equal f_avgp[1]
variable pyy1 equal f_avgp[2]
variable pzz1 equal f_avgp[3]
variable pxy1 equal f_avgp[4]
variable pxz1 equal f_avgp[5]
variable pyz1 equal f_avgp[6]

# Compute elastic constant from pressure
# d1 = -[pxx1-pxx0]/[(]v_delta/v_len0] defined in input script
variable C1neg equal -33.0910465930529
variable C2neg equal -10.414028945011
variable C3neg equal -76.2331272632311
variable C4neg equal -3.84550533943904
variable C5neg equal 11.3760624500735
variable C6neg equal -8.48378903586879

# Reset box and simulation parameters
clear
# box tilt large
read_restart equil.res
Reading restart file ...
  restart file = 2 Aug 2023, LAMMPS = 2 Aug 2023
  restoring atom style full from restart
  triclinic box = (0 0 0) to (19.0492 14.0575 17.55) with tilt (-10.7944 1.3894 -3.3406)
  pair style reaxff stores no restart info
  373 atoms
Finding 1-2 1-3 1-4 neighbors ...
     0 = max # of 1-2 neighbors
     0 = max # of 1-3 neighbors
     0 = max # of 1-4 neighbors
     1 = max # of special neighbors
  read_restart CPU = 0.002 seconds

# Positive deformation
variable delta equal 0.01*14.0575
variable deltaxy equal 0.01*xy
variable deltaxz equal 0.01*xz
variable deltayz equal 0.01*yz
fix deform_p all deform 100 y delta 0 0.140575 yz delta -0.033406 remap x units box

# Run deformation MD
*****Positive-deform 2 starts.*****
include ff.mod.lmp
# Setup forcefield, system
# undefine any fix ave/* fix before using reset_timestep
if "$(is_defined(fix,avgp))" then "unfix avgp"
reset_timestep 0

# Assign the force field
pair_style reaxff NULL safezone 3.0 mincap 150
# pair_coeff * * CHONSSi.ff O Si
# pair_coeff * * CHOSiNa.ff O Si
# pair_coeff * * SiOCHN_2018.ff O Si
# pair_coeff * * PDMSDecomp.ff Si O
pair_coeff * * CHONSi.ff C H O Si
# pair_coeff * * CHOFe.ff O Si

# charge method for reaxff
fix myqeq all qeq/reaxff 1 0.0 10.0 1.0e-6 reaxff maxiter 400
# Setup neighbor style
neighbor        2 bin
neigh_modify    every 10 delay 0 check no

# Setup output
fix avgp all ave/time  10 10 100 c_thermo_press mode vector
thermo		100
thermo_style custom step temp pe press f_avgp[1] vol
thermo_modify norm no

# equilibration
fix 4 all nvt temp 300 300 50
  fix style: nvt, fix ID: 4

# save trajectory
dump dump_pos2 all custom 100 dump/pos_deform2.lammpstrj id type x y z
variable dir1 equal 2
run 2000
All restart file global fix info was re-assigned
Step          Temp          PotEng         Press        f_avgp[1]        Volume
0   294.19945     -40475.217     -2480.3296      0              4699.6115
Averages over the last 11 of 21 rows, steps 1000 to 2000:
Temp PotEng Press f_avgp[1] Volume
296.508 -40517 -3814.72 -5484.44 4734.86
Loop time of 42.2236 on 8 procs for 2000 steps with 373 atoms

# Obtain new stress tensor
variable pxx1 equal f_avgp[1]
variable pyy1 equal f_avgp[2]
variable pzz1 equal f_avgp[3]
variable pxy1 equal f_avgp[4]
variable pxz1 equal f_avgp[5]
variable pyz1 equal f_avgp[6]

# Compute elastic constant from pressure tensor
# d1 = -[pxx1-pxx0]/[(]v_delta/v_len0] defined in input script
variable C1pos equal 53.1825567715259
variable C2pos equal 1.15615646684448
variable C3pos equal 92.0958627637149
variable C4pos equal 11.4210589218202
variable C5pos equal -0.0648289781800187
variable C6pos equal -3.53103140442791

# Combine positive and negative
variable C12 equal 0.5*(-33.0910465930529+53.1825567715259)
variable C22 equal 0.5*(-10.414028945011+1.15615646684448)
variable C32 equal 0.5*(-76.2331272632311+92.0958627637149)
variable C42 equal 0.5*(-3.84550533943904+11.4210589218202)
variable C52 equal 0.5*(11.3760624500735+-0.0648289781800187)
variable C62 equal 0.5*(-8.48378903586879+-3.53103140442791)

# Delete dir to make sure it is not reused
variable dir delete
# uzz Perturbation
variable dir equal 3
include displace.mod.lmp
# Find which reference length to use
variable len0 equal 17.55

# Reset box and simulation parameters
clear
# box tilt large
read_restart equil.res
Reading restart file ...
  restart file = 2 Aug 2023, LAMMPS = 2 Aug 2023
  restoring atom style full from restart
  triclinic box = (0 0 0) to (19.0492 14.0575 17.55) with tilt (-10.7944 1.3894 -3.3406)
  pair style reaxff stores no restart info
  373 atoms
Finding 1-2 1-3 1-4 neighbors ...
     0 = max # of 1-2 neighbors
     0 = max # of 1-3 neighbors
     0 = max # of 1-4 neighbors
     1 = max # of special neighbors
  read_restart CPU = 0.002 seconds

# Negative deformation
variable delta equal -0.01*17.55
variable deltaxy equal -0.01*xy
variable deltaxz equal -0.01*xz
variable deltayz equal -0.01*yz
fix deform_n all deform 100 z delta 0 -0.1755 remap x units box

# Run MD for Negative deformation
*****Negative-deform 3 starts.*****
include ff.mod.lmp
# Setup forcefield, system
# undefine any fix ave/* fix before using reset_timestep
if "$(is_defined(fix,avgp))" then "unfix avgp"
reset_timestep 0

# Assign the force field
pair_style reaxff NULL safezone 3.0 mincap 150
# pair_coeff * * CHONSSi.ff O Si
# pair_coeff * * CHOSiNa.ff O Si
# pair_coeff * * SiOCHN_2018.ff O Si
# pair_coeff * * PDMSDecomp.ff Si O
pair_coeff * * CHONSi.ff C H O Si
# pair_coeff * * CHOFe.ff O Si

# charge method for reaxff
fix myqeq all qeq/reaxff 1 0.0 10.0 1.0e-6 reaxff maxiter 400
# Setup neighbor style
neighbor        2 bin
neigh_modify    every 10 delay 0 check no

# Setup output
fix avgp all ave/time  10 10 100 c_thermo_press mode vector
thermo		100
thermo_style custom step temp pe press f_avgp[1] vol
thermo_modify norm no

# equilibration
fix 4 all nvt temp 300 300 50
  fix style: nvt, fix ID: 4

# save trajectory
dump dump_neg3 all custom 100 dump/neg_deform3.lammpstrj id type x y z
variable dir1 equal 3
run 2000
All restart file global fix info was re-assigned
Step          Temp          PotEng         Press        f_avgp[1]        Volume
0   294.19945     -40475.217     -2480.3296      0              4699.6115
Averages over the last 11 of 21 rows, steps 1000 to 2000:
Temp PotEng Press f_avgp[1] Volume
294.777 -40509.8 -4873.41 -3391.68 4664.36
Loop time of 44.7414 on 8 procs for 2000 steps with 373 atoms

# Obtain new stress tensor Negative deformation
variable pxx1 equal f_avgp[1]
variable pyy1 equal f_avgp[2]
variable pzz1 equal f_avgp[3]
variable pxy1 equal f_avgp[4]
variable pxz1 equal f_avgp[5]
variable pyz1 equal f_avgp[6]

# Compute elastic constant from pressure
# d1 = -[pxx1-pxx0]/[(]v_delta/v_len0] defined in input script
variable C1neg equal -44.8126395939765
variable C2neg equal -9.17831434882285
variable C3neg equal -42.6619218336688
variable C4neg equal -16.7461120387549
variable C5neg equal 8.93569073880773
variable C6neg equal 8.2208307498593

# Reset box and simulation parameters
clear
# box tilt large
read_restart equil.res
Reading restart file ...
  restart file = 2 Aug 2023, LAMMPS = 2 Aug 2023
  restoring atom style full from restart
  triclinic box = (0 0 0) to (19.0492 14.0575 17.55) with tilt (-10.7944 1.3894 -3.3406)
  pair style reaxff stores no restart info
  373 atoms
Finding 1-2 1-3 1-4 neighbors ...
     0 = max # of 1-2 neighbors
     0 = max # of 1-3 neighbors
     0 = max # of 1-4 neighbors
     1 = max # of special neighbors
  read_restart CPU = 0.002 seconds

# Positive deformation
variable delta equal 0.01*17.55
variable deltaxy equal 0.01*xy
variable deltaxz equal 0.01*xz
variable deltayz equal 0.01*yz
fix deform_p all deform 100 z delta 0 0.1755 remap x units box

# Run deformation MD
*****Positive-deform 3 starts.*****
include ff.mod.lmp
# Setup forcefield, system
# undefine any fix ave/* fix before using reset_timestep
if "$(is_defined(fix,avgp))" then "unfix avgp"
reset_timestep 0

# Assign the force field
pair_style reaxff NULL safezone 3.0 mincap 150
# pair_coeff * * CHONSSi.ff O Si
# pair_coeff * * CHOSiNa.ff O Si
# pair_coeff * * SiOCHN_2018.ff O Si
# pair_coeff * * PDMSDecomp.ff Si O
pair_coeff * * CHONSi.ff C H O Si
# pair_coeff * * CHOFe.ff O Si

# charge method for reaxff
fix myqeq all qeq/reaxff 1 0.0 10.0 1.0e-6 reaxff maxiter 400
# Setup neighbor style
neighbor        2 bin
neigh_modify    every 10 delay 0 check no

# Setup output
fix avgp all ave/time  10 10 100 c_thermo_press mode vector
thermo		100
thermo_style custom step temp pe press f_avgp[1] vol
thermo_modify norm no

# equilibration
fix 4 all nvt temp 300 300 50
  fix style: nvt, fix ID: 4

# save trajectory
dump dump_pos3 all custom 100 dump/pos_deform3.lammpstrj id type x y z
variable dir1 equal 3
run 2000
All restart file global fix info was re-assigned
Step          Temp          PotEng         Press        f_avgp[1]        Volume
0   294.19945     -40475.217     -2480.3296      0              4699.6115
Averages over the last 11 of 21 rows, steps 1000 to 2000:
Temp PotEng Press f_avgp[1] Volume
303.141 -40536.4 -3859.02 -3975.86 4734.86
Loop time of 44.3256 on 8 procs for 2000 steps with 373 atoms

# Obtain new stress tensor
variable pxx1 equal f_avgp[1]
variable pyy1 equal f_avgp[2]
variable pzz1 equal f_avgp[3]
variable pxy1 equal f_avgp[4]
variable pxz1 equal f_avgp[5]
variable pyz1 equal f_avgp[6]

# Compute elastic constant from pressure tensor
# d1 = -[pxx1-pxx0]/[(]v_delta/v_len0] defined in input script
variable C1pos equal 51.2653215032745
variable C2pos equal 24.0433660570002
variable C3pos equal 79.3069068705853
variable C4pos equal 15.1266892643239
variable C5pos equal 3.0865456069793
variable C6pos equal 1.03766709977394

# Combine positive and negative
variable C13 equal 0.5*(-44.8126395939765+51.2653215032745)
variable C23 equal 0.5*(-9.17831434882285+24.0433660570002)
variable C33 equal 0.5*(-42.6619218336688+79.3069068705853)
variable C43 equal 0.5*(-16.7461120387549+15.1266892643239)
variable C53 equal 0.5*(8.93569073880773+3.0865456069793)
variable C63 equal 0.5*(8.2208307498593+1.03766709977394)

# Delete dir to make sure it is not reused
variable dir delete
# uyz Perturbation
variable dir equal 4
include displace.mod.lmp
# Find which reference length to use
variable len0 equal 17.55

# Reset box and simulation parameters
clear
# box tilt large
read_restart equil.res
Reading restart file ...
  restart file = 2 Aug 2023, LAMMPS = 2 Aug 2023
  restoring atom style full from restart
  triclinic box = (0 0 0) to (19.0492 14.0575 17.55) with tilt (-10.7944 1.3894 -3.3406)
  pair style reaxff stores no restart info
  373 atoms
Finding 1-2 1-3 1-4 neighbors ...
     0 = max # of 1-2 neighbors
     0 = max # of 1-3 neighbors
     0 = max # of 1-4 neighbors
     1 = max # of special neighbors
  read_restart CPU = 0.002 seconds

# Negative deformation
variable delta equal -0.01*17.55
variable deltaxy equal -0.01*xy
variable deltaxz equal -0.01*xz
variable deltayz equal -0.01*yz
fix deform_n all deform 100 yz delta -0.1755 remap x units box

# Run MD for Negative deformation
*****Negative-deform 4 starts.*****
include ff.mod.lmp
# Setup forcefield, system
# undefine any fix ave/* fix before using reset_timestep
if "$(is_defined(fix,avgp))" then "unfix avgp"
reset_timestep 0

# Assign the force field
pair_style reaxff NULL safezone 3.0 mincap 150
# pair_coeff * * CHONSSi.ff O Si
# pair_coeff * * CHOSiNa.ff O Si
# pair_coeff * * SiOCHN_2018.ff O Si
# pair_coeff * * PDMSDecomp.ff Si O
pair_coeff * * CHONSi.ff C H O Si
# pair_coeff * * CHOFe.ff O Si

# charge method for reaxff
fix myqeq all qeq/reaxff 1 0.0 10.0 1.0e-6 reaxff maxiter 400
# Setup neighbor style
neighbor        2 bin
neigh_modify    every 10 delay 0 check no

# Setup output
fix avgp all ave/time  10 10 100 c_thermo_press mode vector
thermo		100
thermo_style custom step temp pe press f_avgp[1] vol
thermo_modify norm no

# equilibration
fix 4 all nvt temp 300 300 50
  fix style: nvt, fix ID: 4

# save trajectory
dump dump_neg4 all custom 100 dump/neg_deform4.lammpstrj id type x y z
variable dir1 equal 4
run 2000
All restart file global fix info was re-assigned
Step          Temp          PotEng         Press        f_avgp[1]        Volume
0   294.19945     -40475.217     -2480.3296      0              4699.6115
Averages over the last 11 of 21 rows, steps 1000 to 2000:
Temp PotEng Press f_avgp[1] Volume
297.027 -40534.4 -3281.21 -3695.58 4699.61
Loop time of 42.3276 on 8 procs for 2000 steps with 373 atoms

# Obtain new stress tensor Negative deformation
variable pxx1 equal f_avgp[1]
variable pyy1 equal f_avgp[2]
variable pzz1 equal f_avgp[3]
variable pxy1 equal f_avgp[4]
variable pxz1 equal f_avgp[5]
variable pyz1 equal f_avgp[6]

# Compute elastic constant from pressure
# d1 = -[pxx1-pxx0]/[(]v_delta/v_len0] defined in input script
variable C1neg equal -30.1596531444911
variable C2neg equal -5.30579387691443
variable C3neg equal -39.9001546198229
variable C4neg equal -7.88937012314278
variable C5neg equal 2.92325289770583
variable C6neg equal -2.91734549640435

# Reset box and simulation parameters
clear
# box tilt large
read_restart equil.res
Reading restart file ...
  restart file = 2 Aug 2023, LAMMPS = 2 Aug 2023
  restoring atom style full from restart
  triclinic box = (0 0 0) to (19.0492 14.0575 17.55) with tilt (-10.7944 1.3894 -3.3406)
  pair style reaxff stores no restart info
  373 atoms
Finding 1-2 1-3 1-4 neighbors ...
     0 = max # of 1-2 neighbors
     0 = max # of 1-3 neighbors
     0 = max # of 1-4 neighbors
     1 = max # of special neighbors
  read_restart CPU = 0.002 seconds

# Positive deformation
variable delta equal 0.01*17.55
variable deltaxy equal 0.01*xy
variable deltaxz equal 0.01*xz
variable deltayz equal 0.01*yz
fix deform_p all deform 100 yz delta 0.1755 remap x units box

# Run deformation MD
*****Positive-deform 4 starts.*****
include ff.mod.lmp
# Setup forcefield, system
# undefine any fix ave/* fix before using reset_timestep
if "$(is_defined(fix,avgp))" then "unfix avgp"
reset_timestep 0

# Assign the force field
pair_style reaxff NULL safezone 3.0 mincap 150
# pair_coeff * * CHONSSi.ff O Si
# pair_coeff * * CHOSiNa.ff O Si
# pair_coeff * * SiOCHN_2018.ff O Si
# pair_coeff * * PDMSDecomp.ff Si O
pair_coeff * * CHONSi.ff C H O Si
# pair_coeff * * CHOFe.ff O Si

# charge method for reaxff
fix myqeq all qeq/reaxff 1 0.0 10.0 1.0e-6 reaxff maxiter 400
# Setup neighbor style
neighbor        2 bin
neigh_modify    every 10 delay 0 check no

# Setup output
fix avgp all ave/time  10 10 100 c_thermo_press mode vector
thermo		100
thermo_style custom step temp pe press f_avgp[1] vol
thermo_modify norm no

# equilibration
fix 4 all nvt temp 300 300 50
  fix style: nvt, fix ID: 4

# save trajectory
dump dump_pos4 all custom 100 dump/pos_deform4.lammpstrj id type x y z
variable dir1 equal 4
run 2000
All restart file global fix info was re-assigned
Step          Temp          PotEng         Press        f_avgp[1]        Volume
0   294.19945     -40475.217     -2480.3296      0              4699.6115
Averages over the last 11 of 21 rows, steps 1000 to 2000:
Temp PotEng Press f_avgp[1] Volume
302.507 -40522.1 -8542.64 -3912.83 4699.61
Loop time of 42.5325 on 8 procs for 2000 steps with 373 atoms

# Obtain new stress tensor
variable pxx1 equal f_avgp[1]
variable pyy1 equal f_avgp[2]
variable pzz1 equal f_avgp[3]
variable pxy1 equal f_avgp[4]
variable pxz1 equal f_avgp[5]
variable pyz1 equal f_avgp[6]

# Compute elastic constant from pressure tensor
# d1 = -[pxx1-pxx0]/[(]v_delta/v_len0] defined in input script
variable C1pos equal 37.4237848926284
variable C2pos equal 43.9504215084987
variable C3pos equal 99.0755572272859
variable C4pos equal 20.0612854855141
variable C5pos equal 10.0505141229972
variable C6pos equal 0.134026553786255

# Combine positive and negative
variable C14 equal 0.5*(-30.1596531444911+37.4237848926284)
variable C24 equal 0.5*(-5.30579387691443+43.9504215084987)
variable C34 equal 0.5*(-39.9001546198229+99.0755572272859)
variable C44 equal 0.5*(-7.88937012314278+20.0612854855141)
variable C54 equal 0.5*(2.92325289770583+10.0505141229972)
variable C64 equal 0.5*(-2.91734549640435+0.134026553786255)

# Delete dir to make sure it is not reused
variable dir delete
# uxz Perturbation
variable dir equal 5
include displace.mod.lmp
# Find which reference length to use
variable len0 equal 17.55

# Reset box and simulation parameters
clear
# box tilt large
read_restart equil.res
Reading restart file ...
  restart file = 2 Aug 2023, LAMMPS = 2 Aug 2023
  restoring atom style full from restart
  triclinic box = (0 0 0) to (19.0492 14.0575 17.55) with tilt (-10.7944 1.3894 -3.3406)
  pair style reaxff stores no restart info
  373 atoms
Finding 1-2 1-3 1-4 neighbors ...
     0 = max # of 1-2 neighbors
     0 = max # of 1-3 neighbors
     0 = max # of 1-4 neighbors
     1 = max # of special neighbors
  read_restart CPU = 0.002 seconds

# Negative deformation
variable delta equal -0.01*17.55
variable deltaxy equal -0.01*xy
variable deltaxz equal -0.01*xz
variable deltayz equal -0.01*yz
fix deform_n all deform 100 xz delta -0.1755 remap x units box

# Run MD for Negative deformation
*****Negative-deform 5 starts.*****
include ff.mod.lmp
# Setup forcefield, system
# undefine any fix ave/* fix before using reset_timestep
if "$(is_defined(fix,avgp))" then "unfix avgp"
reset_timestep 0

# Assign the force field
pair_style reaxff NULL safezone 3.0 mincap 150
# pair_coeff * * CHONSSi.ff O Si
# pair_coeff * * CHOSiNa.ff O Si
# pair_coeff * * SiOCHN_2018.ff O Si
# pair_coeff * * PDMSDecomp.ff Si O
pair_coeff * * CHONSi.ff C H O Si
# pair_coeff * * CHOFe.ff O Si

# charge method for reaxff
fix myqeq all qeq/reaxff 1 0.0 10.0 1.0e-6 reaxff maxiter 400
# Setup neighbor style
neighbor        2 bin
neigh_modify    every 10 delay 0 check no

# Setup output
fix avgp all ave/time  10 10 100 c_thermo_press mode vector
thermo		100
thermo_style custom step temp pe press f_avgp[1] vol
thermo_modify norm no

# equilibration
fix 4 all nvt temp 300 300 50
  fix style: nvt, fix ID: 4

# save trajectory
dump dump_neg5 all custom 100 dump/neg_deform5.lammpstrj id type x y z
variable dir1 equal 5
run 2000
All restart file global fix info was re-assigned
Step          Temp          PotEng         Press        f_avgp[1]        Volume
0   294.19945     -40475.217     -2480.3296      0              4699.6115
Averages over the last 11 of 21 rows, steps 1000 to 2000:
Temp PotEng Press f_avgp[1] Volume
300.726 -40528.4 -3270.59 -4784.28 4699.61
Loop time of 42.6881 on 8 procs for 2000 steps with 373 atoms

# Obtain new stress tensor Negative deformation
variable pxx1 equal f_avgp[1]
variable pyy1 equal f_avgp[2]
variable pzz1 equal f_avgp[3]
variable pxy1 equal f_avgp[4]
variable pxz1 equal f_avgp[5]
variable pyz1 equal f_avgp[6]

# Compute elastic constant from pressure
# d1 = -[pxx1-pxx0]/[(]v_delta/v_len0] defined in input script
variable C1neg equal -16.4347095380566
variable C2neg equal -23.8247744655305
variable C3neg equal -86.7004121895269
variable C4neg equal -12.5094589010754
variable C5neg equal 3.24843993716531
variable C6neg equal -9.51067854041142

# Reset box and simulation parameters
clear
# box tilt large
read_restart equil.res
Reading restart file ...
  restart file = 2 Aug 2023, LAMMPS = 2 Aug 2023
  restoring atom style full from restart
  triclinic box = (0 0 0) to (19.0492 14.0575 17.55) with tilt (-10.7944 1.3894 -3.3406)
  pair style reaxff stores no restart info
  373 atoms
Finding 1-2 1-3 1-4 neighbors ...
     0 = max # of 1-2 neighbors
     0 = max # of 1-3 neighbors
     0 = max # of 1-4 neighbors
     1 = max # of special neighbors
  read_restart CPU = 0.002 seconds

# Positive deformation
variable delta equal 0.01*17.55
variable deltaxy equal 0.01*xy
variable deltaxz equal 0.01*xz
variable deltayz equal 0.01*yz
fix deform_p all deform 100 xz delta 0.1755 remap x units box

# Run deformation MD
*****Positive-deform 5 starts.*****
include ff.mod.lmp
# Setup forcefield, system
# undefine any fix ave/* fix before using reset_timestep
if "$(is_defined(fix,avgp))" then "unfix avgp"
reset_timestep 0

# Assign the force field
pair_style reaxff NULL safezone 3.0 mincap 150
# pair_coeff * * CHONSSi.ff O Si
# pair_coeff * * CHOSiNa.ff O Si
# pair_coeff * * SiOCHN_2018.ff O Si
# pair_coeff * * PDMSDecomp.ff Si O
pair_coeff * * CHONSi.ff C H O Si
# pair_coeff * * CHOFe.ff O Si

# charge method for reaxff
fix myqeq all qeq/reaxff 1 0.0 10.0 1.0e-6 reaxff maxiter 400
# Setup neighbor style
neighbor        2 bin
neigh_modify    every 10 delay 0 check no

# Setup output
fix avgp all ave/time  10 10 100 c_thermo_press mode vector
thermo		100
thermo_style custom step temp pe press f_avgp[1] vol
thermo_modify norm no

# equilibration
fix 4 all nvt temp 300 300 50
  fix style: nvt, fix ID: 4

# save trajectory
dump dump_pos5 all custom 100 dump/pos_deform5.lammpstrj id type x y z
variable dir1 equal 5
run 2000
All restart file global fix info was re-assigned
Step          Temp          PotEng         Press        f_avgp[1]        Volume
0   294.19945     -40475.217     -2480.3296      0              4699.6115
Averages over the last 11 of 21 rows, steps 1000 to 2000:
Temp PotEng Press f_avgp[1] Volume
301.165 -40527.8 -4493.08 -5981.42 4699.61
Loop time of 42.668 on 8 procs for 2000 steps with 373 atoms

# Obtain new stress tensor
variable pxx1 equal f_avgp[1]
variable pyy1 equal f_avgp[2]
variable pzz1 equal f_avgp[3]
variable pxy1 equal f_avgp[4]
variable pxz1 equal f_avgp[5]
variable pyz1 equal f_avgp[6]

# Compute elastic constant from pressure tensor
# d1 = -[pxx1-pxx0]/[(]v_delta/v_len0] defined in input script
variable C1pos equal 70.3495528121939
variable C2pos equal 19.3653026480581
variable C3pos equal 92.5281257880349
variable C4pos equal 25.1515837558987
variable C5pos equal -10.8465729392274
variable C6pos equal 4.72373125578757

# Combine positive and negative
variable C15 equal 0.5*(-16.4347095380566+70.3495528121939)
variable C25 equal 0.5*(-23.8247744655305+19.3653026480581)
variable C35 equal 0.5*(-86.7004121895269+92.5281257880349)
variable C45 equal 0.5*(-12.5094589010754+25.1515837558987)
variable C55 equal 0.5*(3.24843993716531+-10.8465729392274)
variable C65 equal 0.5*(-9.51067854041142+4.72373125578757)

# Delete dir to make sure it is not reused
variable dir delete
# uxy Perturbation
variable dir equal 6
include displace.mod.lmp
# Find which reference length to use
variable len0 equal 14.0575

# Reset box and simulation parameters
clear
# box tilt large
read_restart equil.res
Reading restart file ...
  restart file = 2 Aug 2023, LAMMPS = 2 Aug 2023
  restoring atom style full from restart
  triclinic box = (0 0 0) to (19.0492 14.0575 17.55) with tilt (-10.7944 1.3894 -3.3406)
  pair style reaxff stores no restart info
  373 atoms
Finding 1-2 1-3 1-4 neighbors ...
     0 = max # of 1-2 neighbors
     0 = max # of 1-3 neighbors
     0 = max # of 1-4 neighbors
     1 = max # of special neighbors
  read_restart CPU = 0.002 seconds

# Negative deformation
variable delta equal -0.01*14.0575
variable deltaxy equal -0.01*xy
variable deltaxz equal -0.01*xz
variable deltayz equal -0.01*yz
fix deform_n all deform 100 xy delta -0.140575 remap x units box

# Run MD for Negative deformation
*****Negative-deform 6 starts.*****
include ff.mod.lmp
# Setup forcefield, system
# undefine any fix ave/* fix before using reset_timestep
if "$(is_defined(fix,avgp))" then "unfix avgp"
reset_timestep 0

# Assign the force field
pair_style reaxff NULL safezone 3.0 mincap 150
# pair_coeff * * CHONSSi.ff O Si
# pair_coeff * * CHOSiNa.ff O Si
# pair_coeff * * SiOCHN_2018.ff O Si
# pair_coeff * * PDMSDecomp.ff Si O
pair_coeff * * CHONSi.ff C H O Si
# pair_coeff * * CHOFe.ff O Si

# charge method for reaxff
fix myqeq all qeq/reaxff 1 0.0 10.0 1.0e-6 reaxff maxiter 400
# Setup neighbor style
neighbor        2 bin
neigh_modify    every 10 delay 0 check no

# Setup output
fix avgp all ave/time  10 10 100 c_thermo_press mode vector
thermo		100
thermo_style custom step temp pe press f_avgp[1] vol
thermo_modify norm no

# equilibration
fix 4 all nvt temp 300 300 50
  fix style: nvt, fix ID: 4

# save trajectory
dump dump_neg6 all custom 100 dump/neg_deform6.lammpstrj id type x y z
variable dir1 equal 6
run 2000
All restart file global fix info was re-assigned
Step          Temp          PotEng         Press        f_avgp[1]        Volume
0   294.19945     -40475.217     -2480.3296      0              4699.6115
Averages over the last 11 of 21 rows, steps 1000 to 2000:
Temp PotEng Press f_avgp[1] Volume
302.99 -40544.9 -5433.19 -4148.24 4699.61
Loop time of 42.4894 on 8 procs for 2000 steps with 373 atoms

# Obtain new stress tensor Negative deformation
variable pxx1 equal f_avgp[1]
variable pyy1 equal f_avgp[2]
variable pzz1 equal f_avgp[3]
variable pxy1 equal f_avgp[4]
variable pxz1 equal f_avgp[5]
variable pyz1 equal f_avgp[6]

# Compute elastic constant from pressure
# d1 = -[pxx1-pxx0]/[(]v_delta/v_len0] defined in input script
variable C1neg equal -66.7729133754026
variable C2neg equal -48.0010322435435
variable C3neg equal -133.413165433662
variable C4neg equal -2.14241992538977
variable C5neg equal 11.8583325684995
variable C6neg equal -4.14760745678824

# Reset box and simulation parameters
clear
# box tilt large
read_restart equil.res
Reading restart file ...
  restart file = 2 Aug 2023, LAMMPS = 2 Aug 2023
  restoring atom style full from restart
  triclinic box = (0 0 0) to (19.0492 14.0575 17.55) with tilt (-10.7944 1.3894 -3.3406)
  pair style reaxff stores no restart info
  373 atoms
Finding 1-2 1-3 1-4 neighbors ...
     0 = max # of 1-2 neighbors
     0 = max # of 1-3 neighbors
     0 = max # of 1-4 neighbors
     1 = max # of special neighbors
  read_restart CPU = 0.002 seconds

# Positive deformation
variable delta equal 0.01*14.0575
variable deltaxy equal 0.01*xy
variable deltaxz equal 0.01*xz
variable deltayz equal 0.01*yz
fix deform_p all deform 100 xy delta 0.140575 remap x units box

# Run deformation MD
*****Positive-deform 6 starts.*****
include ff.mod.lmp
# Setup forcefield, system
# undefine any fix ave/* fix before using reset_timestep
if "$(is_defined(fix,avgp))" then "unfix avgp"
reset_timestep 0

# Assign the force field
pair_style reaxff NULL safezone 3.0 mincap 150
# pair_coeff * * CHONSSi.ff O Si
# pair_coeff * * CHOSiNa.ff O Si
# pair_coeff * * SiOCHN_2018.ff O Si
# pair_coeff * * PDMSDecomp.ff Si O
pair_coeff * * CHONSi.ff C H O Si
# pair_coeff * * CHOFe.ff O Si

# charge method for reaxff
fix myqeq all qeq/reaxff 1 0.0 10.0 1.0e-6 reaxff maxiter 400
# Setup neighbor style
neighbor        2 bin
neigh_modify    every 10 delay 0 check no

# Setup output
fix avgp all ave/time  10 10 100 c_thermo_press mode vector
thermo		100
thermo_style custom step temp pe press f_avgp[1] vol
thermo_modify norm no

# equilibration
fix 4 all nvt temp 300 300 50
  fix style: nvt, fix ID: 4

# save trajectory
dump dump_pos6 all custom 100 dump/pos_deform6.lammpstrj id type x y z
variable dir1 equal 6
run 2000
All restart file global fix info was re-assigned
Step          Temp          PotEng         Press        f_avgp[1]        Volume
0   294.19945     -40475.217     -2480.3296      0              4699.6115
Averages over the last 11 of 21 rows, steps 1000 to 2000:
Temp PotEng Press f_avgp[1] Volume
303.188 -40537.9 -2615.14 -5033.12 4699.61
Loop time of 42.5459 on 8 procs for 2000 steps with 373 atoms

# Obtain new stress tensor
variable pxx1 equal f_avgp[1]
variable pyy1 equal f_avgp[2]
variable pzz1 equal f_avgp[3]
variable pxy1 equal f_avgp[4]
variable pxz1 equal f_avgp[5]
variable pyz1 equal f_avgp[6]

# Compute elastic constant from pressure tensor
# d1 = -[pxx1-pxx0]/[(]v_delta/v_len0] defined in input script
variable C1pos equal 69.1963545822116
variable C2pos equal 22.9080898748516
variable C3pos equal 64.7338509533939
variable C4pos equal 8.98333176895093
variable C5pos equal -0.0521615221630377
variable C6pos equal 10.2354911239024

# Combine positive and negative
variable C16 equal 0.5*(-66.7729133754026+69.1963545822116)
variable C26 equal 0.5*(-48.0010322435435+22.9080898748516)
variable C36 equal 0.5*(-133.413165433662+64.7338509533939)
variable C46 equal 0.5*(-2.14241992538977+8.98333176895093)
variable C56 equal 0.5*(11.8583325684995+-0.0521615221630377)
variable C66 equal 0.5*(-4.14760745678824+10.2354911239024)

# Delete dir to make sure it is not reused
variable dir delete

# Calc and output
include calc.mod.lmp
variable C11all equal 0.291072954897402
variable C22all equal -4.62893623908326
variable C33all equal 18.3224925184582

variable C44all equal 6.08595768118566
variable C55all equal -3.79906650103104
variable C66all equal 3.04394183355708

variable C12all equal 0.5*(10.0457550892365+-30.589521408101)
variable C13all equal 0.5*(3.226340954649+-17.4243319907221)
variable C23all equal 0.5*(7.43252585408867+7.9313677502419)

variable C14all equal 0.5*(3.63206587406865+4.97570469345923)
variable C15all equal 0.5*(26.9574216370687+3.83787008436428)
variable C16all equal 0.5*(1.2117206034045+-1.35833165151186)

variable C24all equal 0.5*(19.3223138157921+3.78777679119058)
variable C25all equal 0.5*(-2.2297359087362+5.65561673594674)
variable C26all equal 0.5*(-12.5464711843459+-6.00741022014835)

variable C34all equal 0.5*(29.5877013037315+-0.809711387215501)
variable C35all equal 0.5*(2.913856799254+6.01111817289352)
variable C36all equal 0.5*(-34.339657240134+4.62924892481662)

variable C45all equal 0.5*(6.32106242741165+6.48688351035151)
variable C46all equal 0.5*(3.42045592178058+-1.39165947130905)
variable C56all equal 0.5*(5.90308552316823+-2.39347364231192)

# print stiffness tensor to "C.log"
print """
"""  file C.log screen no
