LAMMPS (2 Aug 2023 - Update 2)
# Initialization
units           real
dimension       3
boundary        p p p
atom_style      full
timestep        0.5   # fs

# Define MD parameters
variable nevery equal 10                  # sampling interval
variable nrepeat equal 10                 # number of samples
variable nfreq equal 10*10
variable nthermo equal 100
# 1 ps : 1e3 fs / 0.5 fs = 2e3 steps
variable nequil equal 50*100
variable nrun equal 50*100
variable temp equal 300.0                # temperature of initial sample
variable tdamp equal 50.0                 # time constant for thermostat
variable seed equal 123456                # seed for thermostat
variable ufac equal 1.01325e-4         # pressure unit conversion, from atm to Gpa
variable up equal 1.0                  # the deformation magnitude 0.01

variable FF string "SiOCHN_2018.ff C H O Si"   # force field args for pair_coeff
# pair_coeff * * CHONSSi.ff O Si
# pair_coeff * * CHOSiNa.ff O Si
# pair_coeff * * SiOCHN_2018.ff O Si
# pair_coeff * * PDMSDecomp.ff Si O
# pair_coeff * * CHONSi.ff C H O Si
# pair_coeff * * CHOFe.ff O Si
variable structure string 333-EXP-11-vasp

# Read the initial sctructure
# box tilt large
read_data       333-EXP-11-vasp.data
Reading data file ...
  triclinic box = (0 0 0) to (16.8189 12.842 16.0755) with tilt (-8.3798 1.195 0.4312)
  reading atoms ...
  274 atoms
Finding 1-2 1-3 1-4 neighbors ...
     0 = max # of 1-2 neighbors
     0 = max # of 1-3 neighbors
     0 = max # of 1-4 neighbors
     1 = max # of special neighbors

# Assign the force field
pair_style reaxff NULL safezone 3.0 mincap 150
pair_coeff * * SiOCHN_2018.ff C H O Si
# charge method for reaxff
fix myqeq all qeq/reaxff 1 0.0 10.0 1.0e-6 reaxff maxiter 400
fix bondinfo all reaxff/bonds 1 bonds_opt.reaxff

# Energy minimization
print "*****Minimization starts.*****"
*****Minimization starts.*****
dump dump_opt all custom 1 dump/dump_opt.lammpstrj id type q x y z
minimize 1.0e-6 1.0e-6 100 1000

CITE-CITE-CITE-CITE-CITE-CITE-CITE-CITE-CITE-CITE-CITE-CITE-CITE

Your simulation uses code contributions which should be cited:

- pair reaxff command: doi:10.1016/j.parco.2011.08.005

@Article{Aktulga12,
 author = {H. M. Aktulga and J. C. Fogarty and S. A. Pandit and A. Y. Grama},
 title = {Parallel Reactive Molecular Dynamics: {N}umerical Methods and Algorithmic Techniques},
 journal = {Parallel Computing},
 year =    2012,
 volume =  38,
 number =  {4--5},
 pages =   {245--259}
}

- fix qeq/reaxff command: doi:10.1016/j.parco.2011.08.005

@Article{Aktulga12,
 author = {H. M. Aktulga and J. C. Fogarty and S. A. Pandit and A. Y. Grama},
 title = {Parallel Reactive Molecular Dynamics: {N}umerical Methods and Algorithmic Techniques},
 journal = {Parallel Computing},
 year =    2012,
 volume =  38,
 pages =   {245--259}
}

CITE-CITE-CITE-CITE-CITE-CITE-CITE-CITE-CITE-CITE-CITE-CITE-CITE

Step          Temp          E_pair         E_mol          TotEng         Press
0   0             -22962.516      0             -22962.516      123127.02
Loop time of 3.36293 on 16 procs for 51 steps with 274 atoms

Minimization stats:
  Stopping criterion = energy tolerance
  Energy initial, next-to-last, final =
  Force two-norm initial, final = 3932.9092 378.80192
  Force max component initial, final = 549.8429 172.76318
  Final line search alpha, max atom move = 0.00016237541 0.028052492
  Iterations, force evaluations = 51 115

min_style cg
# Save the optimized structure
write_data 333-EXP-11-vasp_opt.data
System init for write_data ...
undump dump_opt
unfix bondinfo
velocity        all create 300 123456 dist gaussian

# Equilibration
include ff.mod.lmp
# Setup forcefield, system
# undefine any fix ave/* fix before using reset_timestep
if "$(is_defined(fix,avgp))" then "unfix avgp"
if "$(is_defined(fix,avgl))" then "unfix avgl"
reset_timestep 0

# Assign the force field
pair_style reaxff NULL safezone 3.0 mincap 150
pair_coeff * * SiOCHN_2018.ff C H O Si

# charge method for reaxff
fix myqeq all qeq/reaxff 1 0.0 10.0 1.0e-6 reaxff maxiter 400
# Setup neighbor style
neighbor        2 bin
neigh_modify    every 10 delay 0 check no

# Setup output
thermo		100
thermo_style custom step temp pe press vol lx ly lz
# thermo_style custom step vol lx ly lz yz xz xy
thermo_modify norm no
# thermo_modify line multi

# Sample pressure (and length vector)
fix avgp all ave/time  10 10 100 c_thermo_press mode vector
# variable lx equal lx
# variable ly equal ly
# variable lz equal lz

# nvt
fix fnvt all nvt temp 300 300 50

if "$(is_defined(fix,avgp))" then "unfix avgp"
unfix avgp
if "$(is_defined(fix,avgl))" then "unfix avgl"
thermo_style custom step temp pe press density vol
dump dump_eq all custom 100 dump/dump_eq.lammpstrj id type q x y z

# compute MSD
compute msd1 all msd
fix myMSD all ave/time 10 10 100 c_msd1[1] c_msd1[2] c_msd1[3] c_msd1[4] c_thermo_temp file msd.out

run 5000
Step          Temp          PotEng         Press         Density         Volume
0   300           -26430.416     -6799.9557      1.4594291      3472.1201
Averages over the last 26 of 51 rows, steps 2500 to 5000:
Temp PotEng Press Density Volume
298.2 -27283 -3170.21 1.45943 3472.12
Loop time of 179.615 on 16 procs for 5000 steps with 274 atoms

# Save the equilibrated structure
write_data 333-EXP-11-vasp_eq.data
System init for write_data ...
undump dump_eq
unfix myMSD

# use tmp to save initial length and tilt
variable tmp equal lx
variable lx0 equal 16.8189
variable tmp equal ly
variable ly0 equal 12.842
variable tmp equal lz
variable lz0 equal 16.0755

variable tmp equal yz
variable yz0 equal 0.4312
variable tmp equal xz
variable xz0 equal 1.195
variable tmp equal xy
variable xy0 equal -8.3798

# Write restart
write_restart equil.res
System init for write_restart ...

# dir: direction
# uxx Perturbation
variable dir equal 1
include displace.mod.lmp
# Find which length (epsilon) to calculate
variable len0 equal 16.8189
variable dlen equal lx-16.8189

# strain vector (epsilon)
variable eps equal v_dlen/v_len0

# stress vector (sigma)
variable sig1 equal -f_avgp[1]*0.000101325
variable sig2 equal -f_avgp[2]*0.000101325
variable sig3 equal -f_avgp[3]*0.000101325
variable sig4 equal -f_avgp[6]*0.000101325
variable sig5 equal -f_avgp[5]*0.000101325
variable sig6 equal -f_avgp[4]*0.000101325

# Reset box and simulation parameters
clear
# box tilt large
read_restart equil.res
Reading restart file ...
  restart file = 2 Aug 2023, LAMMPS = 2 Aug 2023
  restoring atom style full from restart
  triclinic box = (0 0 0) to (16.8189 12.842 16.0755) with tilt (-8.3798 1.195 0.4312)
  pair style reaxff stores no restart info
  274 atoms
Finding 1-2 1-3 1-4 neighbors ...
     0 = max # of 1-2 neighbors
     0 = max # of 1-3 neighbors
     0 = max # of 1-4 neighbors
     1 = max # of special neighbors
  read_restart CPU = 0.004 seconds

# Positive deformation
variable delta equal 1*16.8189
variable deltaxy equal 1*xy
variable deltaxz equal 1*xz
variable deltayz equal 1*yz
fix deform_p all deform 100 x delta 0 16.8189 xy delta -8.3798 xz delta 1.195 remap v units box flip no

# Run deformation MD
*****Positive-deform 1 starts.*****
# Save bond information
fix bondinfo all reaxff/bonds 100 bonds/bonds.pos1.reaxff
# Reset neighbor style
neighbor        2 bin
neigh_modify    every 10 delay 0 check no

include ff.mod.lmp
# Setup forcefield, system
# undefine any fix ave/* fix before using reset_timestep
if "$(is_defined(fix,avgp))" then "unfix avgp"
if "$(is_defined(fix,avgl))" then "unfix avgl"
reset_timestep 0

# Assign the force field
pair_style reaxff NULL safezone 3.0 mincap 150
pair_coeff * * SiOCHN_2018.ff C H O Si

# charge method for reaxff
fix myqeq all qeq/reaxff 1 0.0 10.0 1.0e-6 reaxff maxiter 400
# Setup neighbor style
neighbor        2 bin
neigh_modify    every 10 delay 0 check no

# Setup output
thermo		100
thermo_style custom step temp pe press vol lx ly lz
# thermo_style custom step vol lx ly lz yz xz xy
thermo_modify norm no
# thermo_modify line multi

# Sample pressure (and length vector)
fix avgp all ave/time  10 10 100 c_thermo_press mode vector
# variable lx equal lx
# variable ly equal ly
# variable lz equal lz

# nvt
fix fnvt all nvt temp 300 300 50
  fix style: nvt, fix ID: fnvt

# save trajectory
dump dump_pos1 all custom 100 dump/pos1_deform.lammpstrj id type q x y z element
dump_modify dump_pos1 element C H O Si
run 5000
All restart file global fix info was re-assigned
Unused restart file peratom fix info:
  fix style: STORE/ATOM, fix ID: msd1_COMPUTE_STORE
Step          Temp          PotEng         Press          Volume           Lx             Ly             Lz
0   327.1646      -27337.555     -12084.11       3472.1201      16.8189        12.842         16.0755
Averages over the last 26 of 51 rows, steps 2500 to 5000:
Temp PotEng Press Volume Lx Ly Lz
380.396 -26926.7 -16510.9 6076.21 29.4331 12.842 16.0755
Loop time of 140.474 on 16 procs for 5000 steps with 274 atoms

unfix deform_p
unfix data
undump dump_pos1

# Delete dir to make sure it is not reused
variable dir delete
# uyy Perturbation
variable dir equal 2
include displace.mod.lmp
# Find which length (epsilon) to calculate
variable len0 equal 12.842
variable dlen equal ly-12.842

# strain vector (epsilon)
variable eps equal v_dlen/v_len0

# stress vector (sigma)
variable sig1 equal -f_avgp[1]*0.000101325
variable sig2 equal -f_avgp[2]*0.000101325
variable sig3 equal -f_avgp[3]*0.000101325
variable sig4 equal -f_avgp[6]*0.000101325
variable sig5 equal -f_avgp[5]*0.000101325
variable sig6 equal -f_avgp[4]*0.000101325

# Reset box and simulation parameters
clear
# box tilt large
read_restart equil.res
Reading restart file ...
  restart file = 2 Aug 2023, LAMMPS = 2 Aug 2023
  restoring atom style full from restart
  triclinic box = (0 0 0) to (16.8189 12.842 16.0755) with tilt (-8.3798 1.195 0.4312)
  pair style reaxff stores no restart info
  274 atoms
Finding 1-2 1-3 1-4 neighbors ...
     0 = max # of 1-2 neighbors
     0 = max # of 1-3 neighbors
     0 = max # of 1-4 neighbors
     1 = max # of special neighbors
  read_restart CPU = 0.003 seconds

# Positive deformation
variable delta equal 1*12.842
variable deltaxy equal 1*xy
variable deltaxz equal 1*xz
variable deltayz equal 1*yz
fix deform_p all deform 100 y delta 0 12.842 yz delta 0.4312 remap v units box flip no

# Run deformation MD
*****Positive-deform 2 starts.*****
# Save bond information
fix bondinfo all reaxff/bonds 100 bonds/bonds.pos2.reaxff
# Reset neighbor style
neighbor        2 bin
neigh_modify    every 10 delay 0 check no

include ff.mod.lmp
# Setup forcefield, system
# undefine any fix ave/* fix before using reset_timestep
if "$(is_defined(fix,avgp))" then "unfix avgp"
if "$(is_defined(fix,avgl))" then "unfix avgl"
reset_timestep 0

# Assign the force field
pair_style reaxff NULL safezone 3.0 mincap 150
pair_coeff * * SiOCHN_2018.ff C H O Si

# charge method for reaxff
fix myqeq all qeq/reaxff 1 0.0 10.0 1.0e-6 reaxff maxiter 400
# Setup neighbor style
neighbor        2 bin
neigh_modify    every 10 delay 0 check no

# Setup output
thermo		100
thermo_style custom step temp pe press vol lx ly lz
# thermo_style custom step vol lx ly lz yz xz xy
thermo_modify norm no
# thermo_modify line multi

# Sample pressure (and length vector)
fix avgp all ave/time  10 10 100 c_thermo_press mode vector
# variable lx equal lx
# variable ly equal ly
# variable lz equal lz

# nvt
fix fnvt all nvt temp 300 300 50
  fix style: nvt, fix ID: fnvt

# save trajectory
dump dump_pos2 all custom 100 dump/pos2_deform.lammpstrj id type q x y z element
dump_modify dump_pos2 element C H O Si
run 5000
All restart file global fix info was re-assigned
Unused restart file peratom fix info:
  fix style: STORE/ATOM, fix ID: msd1_COMPUTE_STORE
Step          Temp          PotEng         Press          Volume           Lx             Ly             Lz
0   327.1646      -27337.555     -12084.11       3472.1201      16.8189        12.842         16.0755
Averages over the last 26 of 51 rows, steps 2500 to 5000:
Temp PotEng Press Volume Lx Ly Lz
348.3 -27161 -10649.8 6076.21 16.8189 22.4735 16.0755
Loop time of 122.068 on 16 procs for 5000 steps with 274 atoms

unfix deform_p
unfix data
undump dump_pos2

# Delete dir to make sure it is not reused
variable dir delete
# uzz Perturbation
variable dir equal 3
include displace.mod.lmp
# Find which length (epsilon) to calculate
variable len0 equal 16.0755
variable dlen equal lz-16.0755

# strain vector (epsilon)
variable eps equal v_dlen/v_len0

# stress vector (sigma)
variable sig1 equal -f_avgp[1]*0.000101325
variable sig2 equal -f_avgp[2]*0.000101325
variable sig3 equal -f_avgp[3]*0.000101325
variable sig4 equal -f_avgp[6]*0.000101325
variable sig5 equal -f_avgp[5]*0.000101325
variable sig6 equal -f_avgp[4]*0.000101325

# Reset box and simulation parameters
clear
# box tilt large
read_restart equil.res
Reading restart file ...
  restart file = 2 Aug 2023, LAMMPS = 2 Aug 2023
  restoring atom style full from restart
  triclinic box = (0 0 0) to (16.8189 12.842 16.0755) with tilt (-8.3798 1.195 0.4312)
  pair style reaxff stores no restart info
  274 atoms
Finding 1-2 1-3 1-4 neighbors ...
     0 = max # of 1-2 neighbors
     0 = max # of 1-3 neighbors
     0 = max # of 1-4 neighbors
     1 = max # of special neighbors
  read_restart CPU = 0.003 seconds

# Positive deformation
variable delta equal 1*16.0755
variable deltaxy equal 1*xy
variable deltaxz equal 1*xz
variable deltayz equal 1*yz
fix deform_p all deform 100 z delta 0 16.0755 remap v units box

# Run deformation MD
*****Positive-deform 3 starts.*****
# Save bond information
fix bondinfo all reaxff/bonds 100 bonds/bonds.pos3.reaxff
# Reset neighbor style
neighbor        2 bin
neigh_modify    every 10 delay 0 check no

include ff.mod.lmp
# Setup forcefield, system
# undefine any fix ave/* fix before using reset_timestep
if "$(is_defined(fix,avgp))" then "unfix avgp"
if "$(is_defined(fix,avgl))" then "unfix avgl"
reset_timestep 0

# Assign the force field
pair_style reaxff NULL safezone 3.0 mincap 150
pair_coeff * * SiOCHN_2018.ff C H O Si

# charge method for reaxff
fix myqeq all qeq/reaxff 1 0.0 10.0 1.0e-6 reaxff maxiter 400
# Setup neighbor style
neighbor        2 bin
neigh_modify    every 10 delay 0 check no

# Setup output
thermo		100
thermo_style custom step temp pe press vol lx ly lz
# thermo_style custom step vol lx ly lz yz xz xy
thermo_modify norm no
# thermo_modify line multi

# Sample pressure (and length vector)
fix avgp all ave/time  10 10 100 c_thermo_press mode vector
# variable lx equal lx
# variable ly equal ly
# variable lz equal lz

# nvt
fix fnvt all nvt temp 300 300 50
  fix style: nvt, fix ID: fnvt

# save trajectory
dump dump_pos3 all custom 100 dump/pos3_deform.lammpstrj id type q x y z element
dump_modify dump_pos3 element C H O Si
run 5000
All restart file global fix info was re-assigned
Unused restart file peratom fix info:
  fix style: STORE/ATOM, fix ID: msd1_COMPUTE_STORE
Step          Temp          PotEng         Press          Volume           Lx             Ly             Lz
0   327.1646      -27337.555     -12084.11       3472.1201      16.8189        12.842         16.0755
Averages over the last 26 of 51 rows, steps 2500 to 5000:
Temp PotEng Press Volume Lx Ly Lz
355.701 -27023.9 -17862.5 6076.21 16.8189 12.842 28.1321
Loop time of 135.108 on 16 procs for 5000 steps with 274 atoms

unfix deform_p
unfix data
undump dump_pos3

# Delete dir to make sure it is not reused
variable dir delete
# uyz Perturbation
variable dir equal 4
include displace.mod.lmp
# Find which length (epsilon) to calculate
variable len0 equal 16.8189
variable dlen equal 2*(yz-0.4312)

# strain vector (epsilon)
variable eps equal v_dlen/v_len0

# stress vector (sigma)
variable sig1 equal -f_avgp[1]*0.000101325
variable sig2 equal -f_avgp[2]*0.000101325
variable sig3 equal -f_avgp[3]*0.000101325
variable sig4 equal -f_avgp[6]*0.000101325
variable sig5 equal -f_avgp[5]*0.000101325
variable sig6 equal -f_avgp[4]*0.000101325

# Reset box and simulation parameters
clear
# box tilt large
read_restart equil.res
Reading restart file ...
  restart file = 2 Aug 2023, LAMMPS = 2 Aug 2023
  restoring atom style full from restart
  triclinic box = (0 0 0) to (16.8189 12.842 16.0755) with tilt (-8.3798 1.195 0.4312)
  pair style reaxff stores no restart info
  274 atoms
Finding 1-2 1-3 1-4 neighbors ...
     0 = max # of 1-2 neighbors
     0 = max # of 1-3 neighbors
     0 = max # of 1-4 neighbors
     1 = max # of special neighbors
  read_restart CPU = 0.006 seconds

# Positive deformation
variable delta equal 1*16.8189
variable deltaxy equal 1*xy
variable deltaxz equal 1*xz
variable deltayz equal 1*yz
fix deform_p all deform 100 yz delta 16.8189 remap v units box flip no

# Run deformation MD
*****Positive-deform 4 starts.*****
# Save bond information
fix bondinfo all reaxff/bonds 100 bonds/bonds.pos4.reaxff
# Reset neighbor style
neighbor        2 bin
neigh_modify    every 10 delay 0 check no

include ff.mod.lmp
# Setup forcefield, system
# undefine any fix ave/* fix before using reset_timestep
if "$(is_defined(fix,avgp))" then "unfix avgp"
if "$(is_defined(fix,avgl))" then "unfix avgl"
reset_timestep 0

# Assign the force field
pair_style reaxff NULL safezone 3.0 mincap 150
pair_coeff * * SiOCHN_2018.ff C H O Si

# charge method for reaxff
fix myqeq all qeq/reaxff 1 0.0 10.0 1.0e-6 reaxff maxiter 400
# Setup neighbor style
neighbor        2 bin
neigh_modify    every 10 delay 0 check no

# Setup output
thermo		100
thermo_style custom step temp pe press vol lx ly lz
# thermo_style custom step vol lx ly lz yz xz xy
thermo_modify norm no
# thermo_modify line multi

# Sample pressure (and length vector)
fix avgp all ave/time  10 10 100 c_thermo_press mode vector
# variable lx equal lx
# variable ly equal ly
# variable lz equal lz

# nvt
fix fnvt all nvt temp 300 300 50
  fix style: nvt, fix ID: fnvt

# save trajectory
dump dump_pos4 all custom 100 dump/pos4_deform.lammpstrj id type q x y z element
dump_modify dump_pos4 element C H O Si
run 5000
All restart file global fix info was re-assigned
Unused restart file peratom fix info:
  fix style: STORE/ATOM, fix ID: msd1_COMPUTE_STORE
Step          Temp          PotEng         Press          Volume           Lx             Ly             Lz
0   327.1646      -27337.555     -12084.11       3472.1201      16.8189        12.842         16.0755
Averages over the last 26 of 51 rows, steps 2500 to 5000:
Temp PotEng Press Volume Lx Ly Lz
357.265 -27599.4 -16737.7 3472.12 16.8189 12.842 16.0755
Loop time of 220.691 on 16 procs for 5000 steps with 274 atoms

unfix deform_p
unfix data
undump dump_pos4

# Delete dir to make sure it is not reused
variable dir delete
# uxz Perturbation
variable dir equal 5
include displace.mod.lmp
# Find which length (epsilon) to calculate
variable len0 equal 12.842
variable dlen equal 2*(xz-1.195)

# strain vector (epsilon)
variable eps equal v_dlen/v_len0

# stress vector (sigma)
variable sig1 equal -f_avgp[1]*0.000101325
variable sig2 equal -f_avgp[2]*0.000101325
variable sig3 equal -f_avgp[3]*0.000101325
variable sig4 equal -f_avgp[6]*0.000101325
variable sig5 equal -f_avgp[5]*0.000101325
variable sig6 equal -f_avgp[4]*0.000101325

# Reset box and simulation parameters
clear
# box tilt large
read_restart equil.res
Reading restart file ...
  restart file = 2 Aug 2023, LAMMPS = 2 Aug 2023
  restoring atom style full from restart
  triclinic box = (0 0 0) to (16.8189 12.842 16.0755) with tilt (-8.3798 1.195 0.4312)
  pair style reaxff stores no restart info
  274 atoms
Finding 1-2 1-3 1-4 neighbors ...
     0 = max # of 1-2 neighbors
     0 = max # of 1-3 neighbors
     0 = max # of 1-4 neighbors
     1 = max # of special neighbors
  read_restart CPU = 0.003 seconds

# Positive deformation
variable delta equal 1*12.842
variable deltaxy equal 1*xy
variable deltaxz equal 1*xz
variable deltayz equal 1*yz
fix deform_p all deform 100 xz delta 12.842 remap v units box flip no

# Run deformation MD
*****Positive-deform 5 starts.*****
# Save bond information
fix bondinfo all reaxff/bonds 100 bonds/bonds.pos5.reaxff
# Reset neighbor style
neighbor        2 bin
neigh_modify    every 10 delay 0 check no

include ff.mod.lmp
# Setup forcefield, system
# undefine any fix ave/* fix before using reset_timestep
if "$(is_defined(fix,avgp))" then "unfix avgp"
if "$(is_defined(fix,avgl))" then "unfix avgl"
reset_timestep 0

# Assign the force field
pair_style reaxff NULL safezone 3.0 mincap 150
pair_coeff * * SiOCHN_2018.ff C H O Si

# charge method for reaxff
fix myqeq all qeq/reaxff 1 0.0 10.0 1.0e-6 reaxff maxiter 400
# Setup neighbor style
neighbor        2 bin
neigh_modify    every 10 delay 0 check no

# Setup output
thermo		100
thermo_style custom step temp pe press vol lx ly lz
# thermo_style custom step vol lx ly lz yz xz xy
thermo_modify norm no
# thermo_modify line multi

# Sample pressure (and length vector)
fix avgp all ave/time  10 10 100 c_thermo_press mode vector
# variable lx equal lx
# variable ly equal ly
# variable lz equal lz

# nvt
fix fnvt all nvt temp 300 300 50
  fix style: nvt, fix ID: fnvt

# save trajectory
dump dump_pos5 all custom 100 dump/pos5_deform.lammpstrj id type q x y z element
dump_modify dump_pos5 element C H O Si
run 5000
All restart file global fix info was re-assigned
Unused restart file peratom fix info:
  fix style: STORE/ATOM, fix ID: msd1_COMPUTE_STORE
Step          Temp          PotEng         Press          Volume           Lx             Ly             Lz
0   327.1646      -27337.555     -12084.11       3472.1201      16.8189        12.842         16.0755
Averages over the last 26 of 51 rows, steps 2500 to 5000:
Temp PotEng Press Volume Lx Ly Lz
327.131 -27764.9 -5061.67 3472.12 16.8189 12.842 16.0755
Loop time of 202.719 on 16 procs for 5000 steps with 274 atoms

unfix deform_p
unfix data
undump dump_pos5

# Delete dir to make sure it is not reused
variable dir delete
# uxy Perturbation
variable dir equal 6
include displace.mod.lmp
# Find which length (epsilon) to calculate
variable len0 equal 16.0755
variable dlen equal 2*(xy--8.3798)

# strain vector (epsilon)
variable eps equal v_dlen/v_len0

# stress vector (sigma)
variable sig1 equal -f_avgp[1]*0.000101325
variable sig2 equal -f_avgp[2]*0.000101325
variable sig3 equal -f_avgp[3]*0.000101325
variable sig4 equal -f_avgp[6]*0.000101325
variable sig5 equal -f_avgp[5]*0.000101325
variable sig6 equal -f_avgp[4]*0.000101325

# Reset box and simulation parameters
clear
# box tilt large
read_restart equil.res
Reading restart file ...
  restart file = 2 Aug 2023, LAMMPS = 2 Aug 2023
  restoring atom style full from restart
  triclinic box = (0 0 0) to (16.8189 12.842 16.0755) with tilt (-8.3798 1.195 0.4312)
  pair style reaxff stores no restart info
  274 atoms
Finding 1-2 1-3 1-4 neighbors ...
     0 = max # of 1-2 neighbors
     0 = max # of 1-3 neighbors
     0 = max # of 1-4 neighbors
     1 = max # of special neighbors
  read_restart CPU = 0.003 seconds

# Positive deformation
variable delta equal 1*16.0755
variable deltaxy equal 1*xy
variable deltaxz equal 1*xz
variable deltayz equal 1*yz
fix deform_p all deform 100 xy delta 16.0755 remap v units box flip no

# Run deformation MD
*****Positive-deform 6 starts.*****
# Save bond information
fix bondinfo all reaxff/bonds 100 bonds/bonds.pos6.reaxff
# Reset neighbor style
neighbor        2 bin
neigh_modify    every 10 delay 0 check no

include ff.mod.lmp
# Setup forcefield, system
# undefine any fix ave/* fix before using reset_timestep
if "$(is_defined(fix,avgp))" then "unfix avgp"
if "$(is_defined(fix,avgl))" then "unfix avgl"
reset_timestep 0

# Assign the force field
pair_style reaxff NULL safezone 3.0 mincap 150
pair_coeff * * SiOCHN_2018.ff C H O Si

# charge method for reaxff
fix myqeq all qeq/reaxff 1 0.0 10.0 1.0e-6 reaxff maxiter 400
# Setup neighbor style
neighbor        2 bin
neigh_modify    every 10 delay 0 check no

# Setup output
thermo		100
thermo_style custom step temp pe press vol lx ly lz
# thermo_style custom step vol lx ly lz yz xz xy
thermo_modify norm no
# thermo_modify line multi

# Sample pressure (and length vector)
fix avgp all ave/time  10 10 100 c_thermo_press mode vector
# variable lx equal lx
# variable ly equal ly
# variable lz equal lz

# nvt
fix fnvt all nvt temp 300 300 50
  fix style: nvt, fix ID: fnvt

# save trajectory
dump dump_pos6 all custom 100 dump/pos6_deform.lammpstrj id type q x y z element
dump_modify dump_pos6 element C H O Si
run 5000
All restart file global fix info was re-assigned
Unused restart file peratom fix info:
  fix style: STORE/ATOM, fix ID: msd1_COMPUTE_STORE
Step          Temp          PotEng         Press          Volume           Lx             Ly             Lz
0   327.1646      -27337.555     -12084.11       3472.1201      16.8189        12.842         16.0755
Averages over the last 26 of 51 rows, steps 2500 to 5000:
Temp PotEng Press Volume Lx Ly Lz
330.144 -27618.1 2999.58 3472.12 16.8189 12.842 16.0755
Loop time of 169.871 on 16 procs for 5000 steps with 274 atoms

unfix deform_p
unfix data
undump dump_pos6

# Delete dir to make sure it is not reused
variable dir delete

# Calc and output
# include calc.mod.lmp
