LAMMPS (2 Aug 2023 - Update 2)
# Initialization
units           real
dimension       3
boundary        p p p
atom_style      full
timestep        0.5   # fs

# Define MD parameters
variable nevery equal 10                  # sampling interval
variable nrepeat equal 10                 # number of samples
variable nfreq equal 10*10
variable nthermo equal 100
# 1 ps : 1e3 fs / 0.5 fs = 2e3 steps
variable nequil equal 20*100
variable nrun equal 20*100
variable temp equal 300.0                # temperature of initial sample
variable tdamp equal 50.0                 # time constant for thermostat
variable seed equal 123457                # seed for thermostat
variable ufac equal 1.01325e-4         # pressure unit conversion, from atm to Gpa
variable up equal 0.01                  # the deformation magnitude 2.0e-2

# Read the initial sctructure
# box tilt large
variable structure string 333-EXP-27-vasp
read_data       333-EXP-27-vasp.data
Reading data file ...
  triclinic box = (0 0 0) to (15.1447 13.6088 16.498) with tilt (-7.6974 -0.6366 0.5805)
  reading atoms ...
  295 atoms
Finding 1-2 1-3 1-4 neighbors ...
     0 = max # of 1-2 neighbors
     0 = max # of 1-3 neighbors
     0 = max # of 1-4 neighbors
     1 = max # of special neighbors

# Energy minimization
print "*****Minimization starts.*****"
*****Minimization starts.*****
velocity        all create 300 123457 dist gaussian
minimize 1.0e-6 1.0e-6 100 1000
Step          Temp          E_pair         E_mol          TotEng         Press
0   300            0              0              262.90745      3534.467
Loop time of 7.01666e-05 on 16 procs for 1 steps with 295 atoms

Minimization stats:
  Stopping criterion = search direction is not downhill
  Energy initial, next-to-last, final =
  Force two-norm initial, final = 0 0
  Force max component initial, final = 0 0
  Final line search alpha, max atom move = 0 0
  Iterations, force evaluations = 1 0

min_style cg
# Save the optimized structure
write_data 333-EXP-27-vasp_opt.data
System init for write_data ...

# Equilibration
include ff.mod.lmp
# Setup forcefield, system
# undefine any fix ave/* fix before using reset_timestep
if "$(is_defined(fix,avgp))" then "unfix avgp"
reset_timestep 0

# Assign the force field
pair_style reaxff NULL safezone 3.0 mincap 150
# pair_coeff * * CHONSSi.ff O Si
# pair_coeff * * CHOSiNa.ff O Si
# pair_coeff * * SiOCHN_2018.ff O Si
# pair_coeff * * PDMSDecomp.ff Si O
pair_coeff * * CHONSi.ff C H O Si
# pair_coeff * * CHOFe.ff O Si

# charge method for reaxff
fix myqeq all qeq/reaxff 1 0.0 10.0 1.0e-6 reaxff maxiter 400
# Setup neighbor style
neighbor        2 bin
neigh_modify    every 10 delay 0 check no

# Setup output
fix avgp all ave/time  10 10 100 c_thermo_press mode vector
thermo		100
thermo_style custom step temp pe press f_avgp[1] vol
thermo_modify norm no

# equilibration
fix 4 all nve
fix 5 all langevin 300 300 50 123457

thermo_style custom step temp pe press f_avgp[1] density vol
run 2000

CITE-CITE-CITE-CITE-CITE-CITE-CITE-CITE-CITE-CITE-CITE-CITE-CITE

Your simulation uses code contributions which should be cited:

- pair reaxff command: doi:10.1016/j.parco.2011.08.005

@Article{Aktulga12,
 author = {H. M. Aktulga and J. C. Fogarty and S. A. Pandit and A. Y. Grama},
 title = {Parallel Reactive Molecular Dynamics: {N}umerical Methods and Algorithmic Techniques},
 journal = {Parallel Computing},
 year =    2012,
 volume =  38,
 number =  {4--5},
 pages =   {245--259}
}

- fix qeq/reaxff command: doi:10.1016/j.parco.2011.08.005

@Article{Aktulga12,
 author = {H. M. Aktulga and J. C. Fogarty and S. A. Pandit and A. Y. Grama},
 title = {Parallel Reactive Molecular Dynamics: {N}umerical Methods and Algorithmic Techniques},
 journal = {Parallel Computing},
 year =    2012,
 volume =  38,
 pages =   {245--259}
}

CITE-CITE-CITE-CITE-CITE-CITE-CITE-CITE-CITE-CITE-CITE-CITE-CITE

Step          Temp          PotEng         Press        f_avgp[1]       Density         Volume
0   300           -32892.733      87025.291      0              1.5382232      3400.2575
Averages over the last 11 of 21 rows, steps 1000 to 2000:
Temp PotEng Press f_avgp[1] Density Volume
315.041 -34204.1 -4249.76 1367.19 1.53822 3400.26
Loop time of 88.5578 on 16 procs for 2000 steps with 295 atoms

# Save the optimized structure

# Save initial pressure, box size
variable pxx0 equal f_avgp[1]
variable pyy0 equal f_avgp[2]
variable pzz0 equal f_avgp[3]
variable pxy0 equal f_avgp[4]
variable pxz0 equal f_avgp[5]
variable pyz0 equal f_avgp[6]
# use tmp to save constants
variable tmp equal lx
variable lx0 equal 15.1447
variable tmp equal ly
variable ly0 equal 13.6088
variable tmp equal lz
variable lz0 equal 16.498

# define the derivatives, w.r.t. strain tensor
# Constants uses $, variables use v_
variable d1 equal -(v_pxx1--1193.68402345267)/(v_delta/v_len0)*0.000101325
variable d2 equal -(v_pyy1--6648.27417376758)/(v_delta/v_len0)*0.000101325
variable d3 equal -(v_pzz1-2348.67319095736)/(v_delta/v_len0)*0.000101325
variable d4 equal -(v_pyz1-70.6239939329801)/(v_delta/v_len0)*0.000101325*0.5
variable d5 equal -(v_pxz1-1135.17701079551)/(v_delta/v_len0)*0.000101325*0.5
variable d6 equal -(v_pxy1--1257.45234326343)/(v_delta/v_len0)*0.000101325*0.5

# Write restart
write_restart equil.res
System init for write_restart ...

# dir: direction
# uxx Perturbation
variable dir equal 1
include displace.mod.lmp

# Find which reference length to use
variable len0 equal 15.1447

# Reset box and simulation parameters
clear
# box tilt large
read_restart equil.res
Reading restart file ...
  restart file = 2 Aug 2023, LAMMPS = 2 Aug 2023
  restoring atom style full from restart
  triclinic box = (0 0 0) to (15.1447 13.6088 16.498) with tilt (-7.6974 -0.6366 0.5805)
  pair style reaxff stores no restart info
  295 atoms
Finding 1-2 1-3 1-4 neighbors ...
     0 = max # of 1-2 neighbors
     0 = max # of 1-3 neighbors
     0 = max # of 1-4 neighbors
     1 = max # of special neighbors
  read_restart CPU = 0.004 seconds

# Negative deformation
variable delta equal -0.01*15.1447
variable deltaxy equal -0.01*xy
variable deltaxz equal -0.01*xz
variable deltayz equal -0.01*yz
fix deform_n all deform 100 x delta 0 -0.151447 xy delta 0.076974 xz delta 0.006366 remap x units box

# Run MD for Negative deformation
*****Negative-deform 1 starts.*****
include ff.mod.lmp
# Setup forcefield, system
# undefine any fix ave/* fix before using reset_timestep
if "$(is_defined(fix,avgp))" then "unfix avgp"
reset_timestep 0

# Assign the force field
pair_style reaxff NULL safezone 3.0 mincap 150
# pair_coeff * * CHONSSi.ff O Si
# pair_coeff * * CHOSiNa.ff O Si
# pair_coeff * * SiOCHN_2018.ff O Si
# pair_coeff * * PDMSDecomp.ff Si O
pair_coeff * * CHONSi.ff C H O Si
# pair_coeff * * CHOFe.ff O Si

# charge method for reaxff
fix myqeq all qeq/reaxff 1 0.0 10.0 1.0e-6 reaxff maxiter 400
# Setup neighbor style
neighbor        2 bin
neigh_modify    every 10 delay 0 check no

# Setup output
fix avgp all ave/time  10 10 100 c_thermo_press mode vector
thermo		100
thermo_style custom step temp pe press f_avgp[1] vol
thermo_modify norm no

# equilibration
fix 4 all nve
fix 5 all langevin 300 300 50 123457

# save trajectory
dump dump_neg1 all custom 100 dump/neg_deform1.lammpstrj id type x y z
variable dir1 equal 1
run 2000
Step          Temp          PotEng         Press        f_avgp[1]        Volume
0   341.07846     -34221.776     -6656.1132      0              3400.2575
Averages over the last 11 of 21 rows, steps 1000 to 2000:
Temp PotEng Press f_avgp[1] Volume
302.718 -34285.9 3249.22 215.494 3374.76
Loop time of 90.4279 on 16 procs for 2000 steps with 295 atoms

unfix deform_n

# Obtain new stress tensor Negative deformation
variable pxx1 equal f_avgp[1]
variable pyy1 equal f_avgp[2]
variable pzz1 equal f_avgp[3]
variable pxy1 equal f_avgp[4]
variable pxz1 equal f_avgp[5]
variable pyz1 equal f_avgp[6]

# Compute elastic constant from pressure
# d1 = -[pxx1-pxx0]/[(]v_delta/v_len0] defined in input script
variable C1neg equal 49.3180203989602
variable C2neg equal 35.126851217747
variable C3neg equal -9.27696135405564
variable C4neg equal -7.76480439610322
variable C5neg equal 9.80889659736976
variable C6neg equal 1.48258199380953

# Reset box and simulation parameters
clear
# box tilt large
read_restart equil.res
Reading restart file ...
  restart file = 2 Aug 2023, LAMMPS = 2 Aug 2023
  restoring atom style full from restart
  triclinic box = (0 0 0) to (15.1447 13.6088 16.498) with tilt (-7.6974 -0.6366 0.5805)
  pair style reaxff stores no restart info
  295 atoms
Finding 1-2 1-3 1-4 neighbors ...
     0 = max # of 1-2 neighbors
     0 = max # of 1-3 neighbors
     0 = max # of 1-4 neighbors
     1 = max # of special neighbors
  read_restart CPU = 0.004 seconds

# Positive deformation
variable delta equal 0.01*15.1447
variable deltaxy equal 0.01*xy
variable deltaxz equal 0.01*xz
variable deltayz equal 0.01*yz
fix deform_p all deform 100 x delta 0 0.151447 xy delta -0.076974 xz delta -0.006366 remap x units box

# Run deformation MD
*****Positive-deform 1 starts.*****
include ff.mod.lmp
# Setup forcefield, system
# undefine any fix ave/* fix before using reset_timestep
if "$(is_defined(fix,avgp))" then "unfix avgp"
reset_timestep 0

# Assign the force field
pair_style reaxff NULL safezone 3.0 mincap 150
# pair_coeff * * CHONSSi.ff O Si
# pair_coeff * * CHOSiNa.ff O Si
# pair_coeff * * SiOCHN_2018.ff O Si
# pair_coeff * * PDMSDecomp.ff Si O
pair_coeff * * CHONSi.ff C H O Si
# pair_coeff * * CHOFe.ff O Si

# charge method for reaxff
fix myqeq all qeq/reaxff 1 0.0 10.0 1.0e-6 reaxff maxiter 400
# Setup neighbor style
neighbor        2 bin
neigh_modify    every 10 delay 0 check no

# Setup output
fix avgp all ave/time  10 10 100 c_thermo_press mode vector
thermo		100
thermo_style custom step temp pe press f_avgp[1] vol
thermo_modify norm no

# equilibration
fix 4 all nve
fix 5 all langevin 300 300 50 123457

# save trajectory
dump dump_pos1 all custom 100 dump/pos_deform1.lammpstrj id type x y z
variable dir1 equal 1
run 2000
Step          Temp          PotEng         Press        f_avgp[1]        Volume
0   341.07846     -34221.776     -6656.1132      0              3400.2575
Averages over the last 11 of 21 rows, steps 1000 to 2000:
Temp PotEng Press f_avgp[1] Volume
303.56 -34275.6 -6817.03 -4318.04 3425.76
Loop time of 89.0417 on 16 procs for 2000 steps with 295 atoms

unfix deform_p

# Obtain new stress tensor
variable pxx1 equal f_avgp[1]
variable pyy1 equal f_avgp[2]
variable pzz1 equal f_avgp[3]
variable pxy1 equal f_avgp[4]
variable pxz1 equal f_avgp[5]
variable pyz1 equal f_avgp[6]

# Compute elastic constant from pressure tensor
# d1 = -[pxx1-pxx0]/[(]v_delta/v_len0] defined in input script
variable C1pos equal 59.8716646561408
variable C2pos equal 24.1819132101296
variable C3pos equal 39.9770207696852
variable C4pos equal -2.55186571781244
variable C5pos equal 4.97080016263056
variable C6pos equal 1.91133785969112

# Combine positive and negative
variable C11 equal 0.5*(49.3180203989602+59.8716646561408)
variable C21 equal 0.5*(35.126851217747+24.1819132101296)
variable C31 equal 0.5*(-9.27696135405564+39.9770207696852)
variable C41 equal 0.5*(-7.76480439610322+-2.55186571781244)
variable C51 equal 0.5*(9.80889659736976+4.97080016263056)
variable C61 equal 0.5*(1.48258199380953+1.91133785969112)

# Delete dir to make sure it is not reused
variable dir delete
# uyy Perturbation
variable dir equal 2
include displace.mod.lmp

# Find which reference length to use
variable len0 equal 13.6088

# Reset box and simulation parameters
clear
# box tilt large
read_restart equil.res
Reading restart file ...
  restart file = 2 Aug 2023, LAMMPS = 2 Aug 2023
  restoring atom style full from restart
  triclinic box = (0 0 0) to (15.1447 13.6088 16.498) with tilt (-7.6974 -0.6366 0.5805)
  pair style reaxff stores no restart info
  295 atoms
Finding 1-2 1-3 1-4 neighbors ...
     0 = max # of 1-2 neighbors
     0 = max # of 1-3 neighbors
     0 = max # of 1-4 neighbors
     1 = max # of special neighbors
  read_restart CPU = 0.004 seconds

# Negative deformation
variable delta equal -0.01*13.6088
variable deltaxy equal -0.01*xy
variable deltaxz equal -0.01*xz
variable deltayz equal -0.01*yz
fix deform_n all deform 100 y delta 0 -0.136088 yz delta -0.005805 remap x units box

# Run MD for Negative deformation
*****Negative-deform 2 starts.*****
include ff.mod.lmp
# Setup forcefield, system
# undefine any fix ave/* fix before using reset_timestep
if "$(is_defined(fix,avgp))" then "unfix avgp"
reset_timestep 0

# Assign the force field
pair_style reaxff NULL safezone 3.0 mincap 150
# pair_coeff * * CHONSSi.ff O Si
# pair_coeff * * CHOSiNa.ff O Si
# pair_coeff * * SiOCHN_2018.ff O Si
# pair_coeff * * PDMSDecomp.ff Si O
pair_coeff * * CHONSi.ff C H O Si
# pair_coeff * * CHOFe.ff O Si

# charge method for reaxff
fix myqeq all qeq/reaxff 1 0.0 10.0 1.0e-6 reaxff maxiter 400
# Setup neighbor style
neighbor        2 bin
neigh_modify    every 10 delay 0 check no

# Setup output
fix avgp all ave/time  10 10 100 c_thermo_press mode vector
thermo		100
thermo_style custom step temp pe press f_avgp[1] vol
thermo_modify norm no

# equilibration
fix 4 all nve
fix 5 all langevin 300 300 50 123457

# save trajectory
dump dump_neg2 all custom 100 dump/neg_deform2.lammpstrj id type x y z
variable dir1 equal 2
run 2000
Step          Temp          PotEng         Press        f_avgp[1]        Volume
0   341.07846     -34221.776     -6656.1132      0              3400.2575
Averages over the last 11 of 21 rows, steps 1000 to 2000:
Temp PotEng Press f_avgp[1] Volume
313.574 -34285 -1666.82 1858.07 3374.76
Loop time of 90.2902 on 16 procs for 2000 steps with 295 atoms

unfix deform_n

# Obtain new stress tensor Negative deformation
variable pxx1 equal f_avgp[1]
variable pyy1 equal f_avgp[2]
variable pzz1 equal f_avgp[3]
variable pxy1 equal f_avgp[4]
variable pxz1 equal f_avgp[5]
variable pyz1 equal f_avgp[6]

# Compute elastic constant from pressure
# d1 = -[pxx1-pxx0]/[(]v_delta/v_len0] defined in input script
variable C1neg equal -15.4829754974953
variable C2neg equal 41.3065761604192
variable C3neg equal -36.7706514470536
variable C4neg equal -11.062367231919
variable C5neg equal 4.80039479682604
variable C6neg equal 3.26580217761564

# Reset box and simulation parameters
clear
# box tilt large
read_restart equil.res
Reading restart file ...
  restart file = 2 Aug 2023, LAMMPS = 2 Aug 2023
  restoring atom style full from restart
  triclinic box = (0 0 0) to (15.1447 13.6088 16.498) with tilt (-7.6974 -0.6366 0.5805)
  pair style reaxff stores no restart info
  295 atoms
Finding 1-2 1-3 1-4 neighbors ...
     0 = max # of 1-2 neighbors
     0 = max # of 1-3 neighbors
     0 = max # of 1-4 neighbors
     1 = max # of special neighbors
  read_restart CPU = 0.011 seconds

# Positive deformation
variable delta equal 0.01*13.6088
variable deltaxy equal 0.01*xy
variable deltaxz equal 0.01*xz
variable deltayz equal 0.01*yz
fix deform_p all deform 100 y delta 0 0.136088 yz delta 0.005805 remap x units box

# Run deformation MD
*****Positive-deform 2 starts.*****
include ff.mod.lmp
# Setup forcefield, system
# undefine any fix ave/* fix before using reset_timestep
if "$(is_defined(fix,avgp))" then "unfix avgp"
reset_timestep 0

# Assign the force field
pair_style reaxff NULL safezone 3.0 mincap 150
# pair_coeff * * CHONSSi.ff O Si
# pair_coeff * * CHOSiNa.ff O Si
# pair_coeff * * SiOCHN_2018.ff O Si
# pair_coeff * * PDMSDecomp.ff Si O
pair_coeff * * CHONSi.ff C H O Si
# pair_coeff * * CHOFe.ff O Si

# charge method for reaxff
fix myqeq all qeq/reaxff 1 0.0 10.0 1.0e-6 reaxff maxiter 400
# Setup neighbor style
neighbor        2 bin
neigh_modify    every 10 delay 0 check no

# Setup output
fix avgp all ave/time  10 10 100 c_thermo_press mode vector
thermo		100
thermo_style custom step temp pe press f_avgp[1] vol
thermo_modify norm no

# equilibration
fix 4 all nve
fix 5 all langevin 300 300 50 123457

# save trajectory
dump dump_pos2 all custom 100 dump/pos_deform2.lammpstrj id type x y z
variable dir1 equal 2
run 2000
Step          Temp          PotEng         Press        f_avgp[1]        Volume
0   341.07846     -34221.776     -6656.1132      0              3400.2575
Averages over the last 11 of 21 rows, steps 1000 to 2000:
Temp PotEng Press f_avgp[1] Volume
301.73 -34286.9 1663.71 3158.73 3425.76
Loop time of 88.8942 on 16 procs for 2000 steps with 295 atoms

unfix deform_p

# Obtain new stress tensor
variable pxx1 equal f_avgp[1]
variable pyy1 equal f_avgp[2]
variable pzz1 equal f_avgp[3]
variable pxy1 equal f_avgp[4]
variable pxz1 equal f_avgp[5]
variable pyz1 equal f_avgp[6]

# Compute elastic constant from pressure tensor
# d1 = -[pxx1-pxx0]/[(]v_delta/v_len0] defined in input script
variable C1pos equal -73.4706404153376
variable C2pos equal -64.2111659882083
variable C3pos equal 40.2096173954189
variable C4pos equal 22.4818963053517
variable C5pos equal -10.312180926084
variable C6pos equal 6.26627146862603

# Combine positive and negative
variable C12 equal 0.5*(-15.4829754974953+-73.4706404153376)
variable C22 equal 0.5*(41.3065761604192+-64.2111659882083)
variable C32 equal 0.5*(-36.7706514470536+40.2096173954189)
variable C42 equal 0.5*(-11.062367231919+22.4818963053517)
variable C52 equal 0.5*(4.80039479682604+-10.312180926084)
variable C62 equal 0.5*(3.26580217761564+6.26627146862603)

# Delete dir to make sure it is not reused
variable dir delete
# uzz Perturbation
variable dir equal 3
include displace.mod.lmp

# Find which reference length to use
variable len0 equal 16.498

# Reset box and simulation parameters
clear
# box tilt large
read_restart equil.res
Reading restart file ...
  restart file = 2 Aug 2023, LAMMPS = 2 Aug 2023
  restoring atom style full from restart
  triclinic box = (0 0 0) to (15.1447 13.6088 16.498) with tilt (-7.6974 -0.6366 0.5805)
  pair style reaxff stores no restart info
  295 atoms
Finding 1-2 1-3 1-4 neighbors ...
     0 = max # of 1-2 neighbors
     0 = max # of 1-3 neighbors
     0 = max # of 1-4 neighbors
     1 = max # of special neighbors
  read_restart CPU = 0.003 seconds

# Negative deformation
variable delta equal -0.01*16.498
variable deltaxy equal -0.01*xy
variable deltaxz equal -0.01*xz
variable deltayz equal -0.01*yz
fix deform_n all deform 100 z delta 0 -0.16498 remap x units box

# Run MD for Negative deformation
*****Negative-deform 3 starts.*****
include ff.mod.lmp
# Setup forcefield, system
# undefine any fix ave/* fix before using reset_timestep
if "$(is_defined(fix,avgp))" then "unfix avgp"
reset_timestep 0

# Assign the force field
pair_style reaxff NULL safezone 3.0 mincap 150
# pair_coeff * * CHONSSi.ff O Si
# pair_coeff * * CHOSiNa.ff O Si
# pair_coeff * * SiOCHN_2018.ff O Si
# pair_coeff * * PDMSDecomp.ff Si O
pair_coeff * * CHONSi.ff C H O Si
# pair_coeff * * CHOFe.ff O Si

# charge method for reaxff
fix myqeq all qeq/reaxff 1 0.0 10.0 1.0e-6 reaxff maxiter 400
# Setup neighbor style
neighbor        2 bin
neigh_modify    every 10 delay 0 check no

# Setup output
fix avgp all ave/time  10 10 100 c_thermo_press mode vector
thermo		100
thermo_style custom step temp pe press f_avgp[1] vol
thermo_modify norm no

# equilibration
fix 4 all nve
fix 5 all langevin 300 300 50 123457

# save trajectory
dump dump_neg3 all custom 100 dump/neg_deform3.lammpstrj id type x y z
variable dir1 equal 3
run 2000
Step          Temp          PotEng         Press        f_avgp[1]        Volume
0   341.07846     -34221.776     -6656.1132      0              3400.2575
Averages over the last 11 of 21 rows, steps 1000 to 2000:
Temp PotEng Press f_avgp[1] Volume
300.195 -34267.3 1159.4 834.895 3374.76
Loop time of 90.2617 on 16 procs for 2000 steps with 295 atoms

unfix deform_n

# Obtain new stress tensor Negative deformation
variable pxx1 equal f_avgp[1]
variable pyy1 equal f_avgp[2]
variable pzz1 equal f_avgp[3]
variable pxy1 equal f_avgp[4]
variable pxz1 equal f_avgp[5]
variable pyz1 equal f_avgp[6]

# Compute elastic constant from pressure
# d1 = -[pxx1-pxx0]/[(]v_delta/v_len0] defined in input script
variable C1neg equal 61.6837428435455
variable C2neg equal 70.4253663435883
variable C3neg equal -52.9655661271069
variable C4neg equal 10.6073476919933
variable C5neg equal 4.53294540076868
variable C6neg equal -15.9712123175842

# Reset box and simulation parameters
clear
# box tilt large
read_restart equil.res
Reading restart file ...
  restart file = 2 Aug 2023, LAMMPS = 2 Aug 2023
  restoring atom style full from restart
  triclinic box = (0 0 0) to (15.1447 13.6088 16.498) with tilt (-7.6974 -0.6366 0.5805)
  pair style reaxff stores no restart info
  295 atoms
Finding 1-2 1-3 1-4 neighbors ...
     0 = max # of 1-2 neighbors
     0 = max # of 1-3 neighbors
     0 = max # of 1-4 neighbors
     1 = max # of special neighbors
  read_restart CPU = 0.003 seconds

# Positive deformation
variable delta equal 0.01*16.498
variable deltaxy equal 0.01*xy
variable deltaxz equal 0.01*xz
variable deltayz equal 0.01*yz
fix deform_p all deform 100 z delta 0 0.16498 remap x units box

# Run deformation MD
*****Positive-deform 3 starts.*****
include ff.mod.lmp
# Setup forcefield, system
# undefine any fix ave/* fix before using reset_timestep
if "$(is_defined(fix,avgp))" then "unfix avgp"
reset_timestep 0

# Assign the force field
pair_style reaxff NULL safezone 3.0 mincap 150
# pair_coeff * * CHONSSi.ff O Si
# pair_coeff * * CHOSiNa.ff O Si
# pair_coeff * * SiOCHN_2018.ff O Si
# pair_coeff * * PDMSDecomp.ff Si O
pair_coeff * * CHONSi.ff C H O Si
# pair_coeff * * CHOFe.ff O Si

# charge method for reaxff
fix myqeq all qeq/reaxff 1 0.0 10.0 1.0e-6 reaxff maxiter 400
# Setup neighbor style
neighbor        2 bin
neigh_modify    every 10 delay 0 check no

# Setup output
fix avgp all ave/time  10 10 100 c_thermo_press mode vector
thermo		100
thermo_style custom step temp pe press f_avgp[1] vol
thermo_modify norm no

# equilibration
fix 4 all nve
fix 5 all langevin 300 300 50 123457

# save trajectory
dump dump_pos3 all custom 100 dump/pos_deform3.lammpstrj id type x y z
variable dir1 equal 3
run 2000
Step          Temp          PotEng         Press        f_avgp[1]        Volume
0   341.07846     -34221.776     -6656.1132      0              3400.2575
Averages over the last 11 of 21 rows, steps 1000 to 2000:
Temp PotEng Press f_avgp[1] Volume
302.077 -34265.7 3129.44 597.814 3425.76
Loop time of 89.471 on 16 procs for 2000 steps with 295 atoms

unfix deform_p

# Obtain new stress tensor
variable pxx1 equal f_avgp[1]
variable pyy1 equal f_avgp[2]
variable pzz1 equal f_avgp[3]
variable pxy1 equal f_avgp[4]
variable pxz1 equal f_avgp[5]
variable pyz1 equal f_avgp[6]

# Compute elastic constant from pressure tensor
# d1 = -[pxx1-pxx0]/[(]v_delta/v_len0] defined in input script
variable C1pos equal -59.2678042476332
variable C2pos equal -45.5462409393143
variable C3pos equal 34.0269603290107
variable C4pos equal 13.6430090491526
variable C5pos equal -22.8739806907989
variable C6pos equal 0.195811326109467

# Combine positive and negative
variable C13 equal 0.5*(61.6837428435455+-59.2678042476332)
variable C23 equal 0.5*(70.4253663435883+-45.5462409393143)
variable C33 equal 0.5*(-52.9655661271069+34.0269603290107)
variable C43 equal 0.5*(10.6073476919933+13.6430090491526)
variable C53 equal 0.5*(4.53294540076868+-22.8739806907989)
variable C63 equal 0.5*(-15.9712123175842+0.195811326109467)

# Delete dir to make sure it is not reused
variable dir delete
# uyz Perturbation
variable dir equal 4
include displace.mod.lmp

# Find which reference length to use
variable len0 equal 16.498

# Reset box and simulation parameters
clear
# box tilt large
read_restart equil.res
Reading restart file ...
  restart file = 2 Aug 2023, LAMMPS = 2 Aug 2023
  restoring atom style full from restart
  triclinic box = (0 0 0) to (15.1447 13.6088 16.498) with tilt (-7.6974 -0.6366 0.5805)
  pair style reaxff stores no restart info
  295 atoms
Finding 1-2 1-3 1-4 neighbors ...
     0 = max # of 1-2 neighbors
     0 = max # of 1-3 neighbors
     0 = max # of 1-4 neighbors
     1 = max # of special neighbors
  read_restart CPU = 0.003 seconds

# Negative deformation
variable delta equal -0.01*16.498
variable deltaxy equal -0.01*xy
variable deltaxz equal -0.01*xz
variable deltayz equal -0.01*yz
fix deform_n all deform 100 yz delta -0.16498 remap x units box

# Run MD for Negative deformation
*****Negative-deform 4 starts.*****
include ff.mod.lmp
# Setup forcefield, system
# undefine any fix ave/* fix before using reset_timestep
if "$(is_defined(fix,avgp))" then "unfix avgp"
reset_timestep 0

# Assign the force field
pair_style reaxff NULL safezone 3.0 mincap 150
# pair_coeff * * CHONSSi.ff O Si
# pair_coeff * * CHOSiNa.ff O Si
# pair_coeff * * SiOCHN_2018.ff O Si
# pair_coeff * * PDMSDecomp.ff Si O
pair_coeff * * CHONSi.ff C H O Si
# pair_coeff * * CHOFe.ff O Si

# charge method for reaxff
fix myqeq all qeq/reaxff 1 0.0 10.0 1.0e-6 reaxff maxiter 400
# Setup neighbor style
neighbor        2 bin
neigh_modify    every 10 delay 0 check no

# Setup output
fix avgp all ave/time  10 10 100 c_thermo_press mode vector
thermo		100
thermo_style custom step temp pe press f_avgp[1] vol
thermo_modify norm no

# equilibration
fix 4 all nve
fix 5 all langevin 300 300 50 123457

# save trajectory
dump dump_neg4 all custom 100 dump/neg_deform4.lammpstrj id type x y z
variable dir1 equal 4
run 2000
Step          Temp          PotEng         Press        f_avgp[1]        Volume
0   341.07846     -34221.776     -6656.1132      0              3400.2575
Averages over the last 11 of 21 rows, steps 1000 to 2000:
Temp PotEng Press f_avgp[1] Volume
308.655 -34275.5 -3050.46 -1627.55 3400.26
Loop time of 89.6392 on 16 procs for 2000 steps with 295 atoms

unfix deform_n

# Obtain new stress tensor Negative deformation
variable pxx1 equal f_avgp[1]
variable pyy1 equal f_avgp[2]
variable pzz1 equal f_avgp[3]
variable pxy1 equal f_avgp[4]
variable pxz1 equal f_avgp[5]
variable pyz1 equal f_avgp[6]

# Compute elastic constant from pressure
# d1 = -[pxx1-pxx0]/[(]v_delta/v_len0] defined in input script
variable C1neg equal 20.9360688620043
variable C2neg equal 2.9162736042338
variable C3neg equal -15.7953015739674
variable C4neg equal 1.66849169304449
variable C5neg equal -11.8819542546692
variable C6neg equal -17.5412203011815

# Reset box and simulation parameters
clear
# box tilt large
read_restart equil.res
Reading restart file ...
  restart file = 2 Aug 2023, LAMMPS = 2 Aug 2023
  restoring atom style full from restart
  triclinic box = (0 0 0) to (15.1447 13.6088 16.498) with tilt (-7.6974 -0.6366 0.5805)
  pair style reaxff stores no restart info
  295 atoms
Finding 1-2 1-3 1-4 neighbors ...
     0 = max # of 1-2 neighbors
     0 = max # of 1-3 neighbors
     0 = max # of 1-4 neighbors
     1 = max # of special neighbors
  read_restart CPU = 0.003 seconds

# Positive deformation
variable delta equal 0.01*16.498
variable deltaxy equal 0.01*xy
variable deltaxz equal 0.01*xz
variable deltayz equal 0.01*yz
fix deform_p all deform 100 yz delta 0.16498 remap x units box

# Run deformation MD
*****Positive-deform 4 starts.*****
include ff.mod.lmp
# Setup forcefield, system
# undefine any fix ave/* fix before using reset_timestep
if "$(is_defined(fix,avgp))" then "unfix avgp"
reset_timestep 0

# Assign the force field
pair_style reaxff NULL safezone 3.0 mincap 150
# pair_coeff * * CHONSSi.ff O Si
# pair_coeff * * CHOSiNa.ff O Si
# pair_coeff * * SiOCHN_2018.ff O Si
# pair_coeff * * PDMSDecomp.ff Si O
pair_coeff * * CHONSi.ff C H O Si
# pair_coeff * * CHOFe.ff O Si

# charge method for reaxff
fix myqeq all qeq/reaxff 1 0.0 10.0 1.0e-6 reaxff maxiter 400
# Setup neighbor style
neighbor        2 bin
neigh_modify    every 10 delay 0 check no

# Setup output
fix avgp all ave/time  10 10 100 c_thermo_press mode vector
thermo		100
thermo_style custom step temp pe press f_avgp[1] vol
thermo_modify norm no

# equilibration
fix 4 all nve
fix 5 all langevin 300 300 50 123457

# save trajectory
dump dump_pos4 all custom 100 dump/pos_deform4.lammpstrj id type x y z
variable dir1 equal 4
run 2000
Step          Temp          PotEng         Press        f_avgp[1]        Volume
0   341.07846     -34221.776     -6656.1132      0              3400.2575
Averages over the last 11 of 21 rows, steps 1000 to 2000:
Temp PotEng Press f_avgp[1] Volume
299.057 -34288.1 -4373.72 -1451.66 3400.26
Loop time of 89.7236 on 16 procs for 2000 steps with 295 atoms

unfix deform_p

# Obtain new stress tensor
variable pxx1 equal f_avgp[1]
variable pyy1 equal f_avgp[2]
variable pzz1 equal f_avgp[3]
variable pxy1 equal f_avgp[4]
variable pxz1 equal f_avgp[5]
variable pyz1 equal f_avgp[6]

# Compute elastic constant from pressure tensor
# d1 = -[pxx1-pxx0]/[(]v_delta/v_len0] defined in input script
variable C1pos equal -11.5240795759715
variable C2pos equal 29.1658218331907
variable C3pos equal 42.8715969273402
variable C4pos equal 28.1553084567449
variable C5pos equal -26.230827638689
variable C6pos equal 7.79755202986866

# Combine positive and negative
variable C14 equal 0.5*(20.9360688620043+-11.5240795759715)
variable C24 equal 0.5*(2.9162736042338+29.1658218331907)
variable C34 equal 0.5*(-15.7953015739674+42.8715969273402)
variable C44 equal 0.5*(1.66849169304449+28.1553084567449)
variable C54 equal 0.5*(-11.8819542546692+-26.230827638689)
variable C64 equal 0.5*(-17.5412203011815+7.79755202986866)

# Delete dir to make sure it is not reused
variable dir delete
# uxz Perturbation
variable dir equal 5
include displace.mod.lmp

# Find which reference length to use
variable len0 equal 16.498

# Reset box and simulation parameters
clear
# box tilt large
read_restart equil.res
Reading restart file ...
  restart file = 2 Aug 2023, LAMMPS = 2 Aug 2023
  restoring atom style full from restart
  triclinic box = (0 0 0) to (15.1447 13.6088 16.498) with tilt (-7.6974 -0.6366 0.5805)
  pair style reaxff stores no restart info
  295 atoms
Finding 1-2 1-3 1-4 neighbors ...
     0 = max # of 1-2 neighbors
     0 = max # of 1-3 neighbors
     0 = max # of 1-4 neighbors
     1 = max # of special neighbors
  read_restart CPU = 0.003 seconds

# Negative deformation
variable delta equal -0.01*16.498
variable deltaxy equal -0.01*xy
variable deltaxz equal -0.01*xz
variable deltayz equal -0.01*yz
fix deform_n all deform 100 xz delta -0.16498 remap x units box

# Run MD for Negative deformation
*****Negative-deform 5 starts.*****
include ff.mod.lmp
# Setup forcefield, system
# undefine any fix ave/* fix before using reset_timestep
if "$(is_defined(fix,avgp))" then "unfix avgp"
reset_timestep 0

# Assign the force field
pair_style reaxff NULL safezone 3.0 mincap 150
# pair_coeff * * CHONSSi.ff O Si
# pair_coeff * * CHOSiNa.ff O Si
# pair_coeff * * SiOCHN_2018.ff O Si
# pair_coeff * * PDMSDecomp.ff Si O
pair_coeff * * CHONSi.ff C H O Si
# pair_coeff * * CHOFe.ff O Si

# charge method for reaxff
fix myqeq all qeq/reaxff 1 0.0 10.0 1.0e-6 reaxff maxiter 400
# Setup neighbor style
neighbor        2 bin
neigh_modify    every 10 delay 0 check no

# Setup output
fix avgp all ave/time  10 10 100 c_thermo_press mode vector
thermo		100
thermo_style custom step temp pe press f_avgp[1] vol
thermo_modify norm no

# equilibration
fix 4 all nve
fix 5 all langevin 300 300 50 123457

# save trajectory
dump dump_neg5 all custom 100 dump/neg_deform5.lammpstrj id type x y z
variable dir1 equal 5
run 2000
Step          Temp          PotEng         Press        f_avgp[1]        Volume
0   341.07846     -34221.776     -6656.1132      0              3400.2575
Averages over the last 11 of 21 rows, steps 1000 to 2000:
Temp PotEng Press f_avgp[1] Volume
302.151 -34276.3 904.671 1637.38 3400.26
Loop time of 89.7388 on 16 procs for 2000 steps with 295 atoms

unfix deform_n

# Obtain new stress tensor Negative deformation
variable pxx1 equal f_avgp[1]
variable pyy1 equal f_avgp[2]
variable pzz1 equal f_avgp[3]
variable pxy1 equal f_avgp[4]
variable pxz1 equal f_avgp[5]
variable pyz1 equal f_avgp[6]

# Compute elastic constant from pressure
# d1 = -[pxx1-pxx0]/[(]v_delta/v_len0] defined in input script
variable C1neg equal 5.24535589065566
variable C2neg equal 43.4944353591887
variable C3neg equal -37.1284483856502
variable C4neg equal -22.5606205060814
variable C5neg equal 24.9281358711088
variable C6neg equal 8.70094638214756

# Reset box and simulation parameters
clear
# box tilt large
read_restart equil.res
Reading restart file ...
  restart file = 2 Aug 2023, LAMMPS = 2 Aug 2023
  restoring atom style full from restart
  triclinic box = (0 0 0) to (15.1447 13.6088 16.498) with tilt (-7.6974 -0.6366 0.5805)
  pair style reaxff stores no restart info
  295 atoms
Finding 1-2 1-3 1-4 neighbors ...
     0 = max # of 1-2 neighbors
     0 = max # of 1-3 neighbors
     0 = max # of 1-4 neighbors
     1 = max # of special neighbors
  read_restart CPU = 0.003 seconds

# Positive deformation
variable delta equal 0.01*16.498
variable deltaxy equal 0.01*xy
variable deltaxz equal 0.01*xz
variable deltayz equal 0.01*yz
fix deform_p all deform 100 xz delta 0.16498 remap x units box

# Run deformation MD
*****Positive-deform 5 starts.*****
include ff.mod.lmp
# Setup forcefield, system
# undefine any fix ave/* fix before using reset_timestep
if "$(is_defined(fix,avgp))" then "unfix avgp"
reset_timestep 0

# Assign the force field
pair_style reaxff NULL safezone 3.0 mincap 150
# pair_coeff * * CHONSSi.ff O Si
# pair_coeff * * CHOSiNa.ff O Si
# pair_coeff * * SiOCHN_2018.ff O Si
# pair_coeff * * PDMSDecomp.ff Si O
pair_coeff * * CHONSi.ff C H O Si
# pair_coeff * * CHOFe.ff O Si

# charge method for reaxff
fix myqeq all qeq/reaxff 1 0.0 10.0 1.0e-6 reaxff maxiter 400
# Setup neighbor style
neighbor        2 bin
neigh_modify    every 10 delay 0 check no

# Setup output
fix avgp all ave/time  10 10 100 c_thermo_press mode vector
thermo		100
thermo_style custom step temp pe press f_avgp[1] vol
thermo_modify norm no

# equilibration
fix 4 all nve
fix 5 all langevin 300 300 50 123457

# save trajectory
dump dump_pos5 all custom 100 dump/pos_deform5.lammpstrj id type x y z
variable dir1 equal 5
run 2000
Step          Temp          PotEng         Press        f_avgp[1]        Volume
0   341.07846     -34221.776     -6656.1132      0              3400.2575
Averages over the last 11 of 21 rows, steps 1000 to 2000:
Temp PotEng Press f_avgp[1] Volume
298.721 -34291.6 842.57 1923.59 3400.26
Loop time of 87.9907 on 16 procs for 2000 steps with 295 atoms

unfix deform_p

# Obtain new stress tensor
variable pxx1 equal f_avgp[1]
variable pyy1 equal f_avgp[2]
variable pzz1 equal f_avgp[3]
variable pxy1 equal f_avgp[4]
variable pxz1 equal f_avgp[5]
variable pyz1 equal f_avgp[6]

# Compute elastic constant from pressure tensor
# d1 = -[pxx1-pxx0]/[(]v_delta/v_len0] defined in input script
variable C1pos equal 11.3217942009101
variable C2pos equal -35.7701577743571
variable C3pos equal 46.9324650268795
variable C4pos equal -6.88228908952142
variable C5pos equal -11.8360822860951
variable C6pos equal -1.91331616352835

# Combine positive and negative
variable C15 equal 0.5*(5.24535589065566+11.3217942009101)
variable C25 equal 0.5*(43.4944353591887+-35.7701577743571)
variable C35 equal 0.5*(-37.1284483856502+46.9324650268795)
variable C45 equal 0.5*(-22.5606205060814+-6.88228908952142)
variable C55 equal 0.5*(24.9281358711088+-11.8360822860951)
variable C65 equal 0.5*(8.70094638214756+-1.91331616352835)

# Delete dir to make sure it is not reused
variable dir delete
# uxy Perturbation
variable dir equal 6
include displace.mod.lmp

# Find which reference length to use
variable len0 equal 13.6088

# Reset box and simulation parameters
clear
# box tilt large
read_restart equil.res
Reading restart file ...
  restart file = 2 Aug 2023, LAMMPS = 2 Aug 2023
  restoring atom style full from restart
  triclinic box = (0 0 0) to (15.1447 13.6088 16.498) with tilt (-7.6974 -0.6366 0.5805)
  pair style reaxff stores no restart info
  295 atoms
Finding 1-2 1-3 1-4 neighbors ...
     0 = max # of 1-2 neighbors
     0 = max # of 1-3 neighbors
     0 = max # of 1-4 neighbors
     1 = max # of special neighbors
  read_restart CPU = 0.003 seconds

# Negative deformation
variable delta equal -0.01*13.6088
variable deltaxy equal -0.01*xy
variable deltaxz equal -0.01*xz
variable deltayz equal -0.01*yz
fix deform_n all deform 100 xy delta -0.136088 remap x units box

# Run MD for Negative deformation
*****Negative-deform 6 starts.*****
include ff.mod.lmp
# Setup forcefield, system
# undefine any fix ave/* fix before using reset_timestep
if "$(is_defined(fix,avgp))" then "unfix avgp"
reset_timestep 0

# Assign the force field
pair_style reaxff NULL safezone 3.0 mincap 150
# pair_coeff * * CHONSSi.ff O Si
# pair_coeff * * CHOSiNa.ff O Si
# pair_coeff * * SiOCHN_2018.ff O Si
# pair_coeff * * PDMSDecomp.ff Si O
pair_coeff * * CHONSi.ff C H O Si
# pair_coeff * * CHOFe.ff O Si

# charge method for reaxff
fix myqeq all qeq/reaxff 1 0.0 10.0 1.0e-6 reaxff maxiter 400
# Setup neighbor style
neighbor        2 bin
neigh_modify    every 10 delay 0 check no

# Setup output
fix avgp all ave/time  10 10 100 c_thermo_press mode vector
thermo		100
thermo_style custom step temp pe press f_avgp[1] vol
thermo_modify norm no

# equilibration
fix 4 all nve
fix 5 all langevin 300 300 50 123457

# save trajectory
dump dump_neg6 all custom 100 dump/neg_deform6.lammpstrj id type x y z
variable dir1 equal 6
run 2000
Step          Temp          PotEng         Press        f_avgp[1]        Volume
0   341.07846     -34221.776     -6656.1132      0              3400.2575
Averages over the last 11 of 21 rows, steps 1000 to 2000:
Temp PotEng Press f_avgp[1] Volume
296.578 -34274.2 -620.306 -2651.33 3400.26
Loop time of 75.6364 on 16 procs for 2000 steps with 295 atoms

unfix deform_n

# Obtain new stress tensor Negative deformation
variable pxx1 equal f_avgp[1]
variable pyy1 equal f_avgp[2]
variable pzz1 equal f_avgp[3]
variable pxy1 equal f_avgp[4]
variable pxz1 equal f_avgp[5]
variable pyz1 equal f_avgp[6]

# Compute elastic constant from pressure
# d1 = -[pxx1-pxx0]/[(]v_delta/v_len0] defined in input script
variable C1neg equal 47.2863670919269
variable C2neg equal -9.16008997570593
variable C3neg equal -32.7200533488322
variable C4neg equal -7.65813878343539
variable C5neg equal 3.75688409871074
variable C6neg equal -1.87667825179118

# Reset box and simulation parameters
clear
# box tilt large
read_restart equil.res
Reading restart file ...
  restart file = 2 Aug 2023, LAMMPS = 2 Aug 2023
  restoring atom style full from restart
  triclinic box = (0 0 0) to (15.1447 13.6088 16.498) with tilt (-7.6974 -0.6366 0.5805)
  pair style reaxff stores no restart info
  295 atoms
Finding 1-2 1-3 1-4 neighbors ...
     0 = max # of 1-2 neighbors
     0 = max # of 1-3 neighbors
     0 = max # of 1-4 neighbors
     1 = max # of special neighbors
  read_restart CPU = 0.002 seconds

# Positive deformation
variable delta equal 0.01*13.6088
variable deltaxy equal 0.01*xy
variable deltaxz equal 0.01*xz
variable deltayz equal 0.01*yz
fix deform_p all deform 100 xy delta 0.136088 remap x units box

# Run deformation MD
*****Positive-deform 6 starts.*****
include ff.mod.lmp
# Setup forcefield, system
# undefine any fix ave/* fix before using reset_timestep
if "$(is_defined(fix,avgp))" then "unfix avgp"
reset_timestep 0

# Assign the force field
pair_style reaxff NULL safezone 3.0 mincap 150
# pair_coeff * * CHONSSi.ff O Si
# pair_coeff * * CHOSiNa.ff O Si
# pair_coeff * * SiOCHN_2018.ff O Si
# pair_coeff * * PDMSDecomp.ff Si O
pair_coeff * * CHONSi.ff C H O Si
# pair_coeff * * CHOFe.ff O Si

# charge method for reaxff
fix myqeq all qeq/reaxff 1 0.0 10.0 1.0e-6 reaxff maxiter 400
# Setup neighbor style
neighbor        2 bin
neigh_modify    every 10 delay 0 check no

# Setup output
fix avgp all ave/time  10 10 100 c_thermo_press mode vector
thermo		100
thermo_style custom step temp pe press f_avgp[1] vol
thermo_modify norm no

# equilibration
fix 4 all nve
fix 5 all langevin 300 300 50 123457

# save trajectory
dump dump_pos6 all custom 100 dump/pos_deform6.lammpstrj id type x y z
variable dir1 equal 6
run 2000
Step          Temp          PotEng         Press        f_avgp[1]        Volume
0   341.07846     -34221.776     -6656.1132      0              3400.2575
Averages over the last 11 of 21 rows, steps 1000 to 2000:
Temp PotEng Press f_avgp[1] Volume
295.726 -34281.3 -3880.86 -854.26 3400.26
Loop time of 54.6584 on 16 procs for 2000 steps with 295 atoms

unfix deform_p

# Obtain new stress tensor
variable pxx1 equal f_avgp[1]
variable pyy1 equal f_avgp[2]
variable pzz1 equal f_avgp[3]
variable pxy1 equal f_avgp[4]
variable pxz1 equal f_avgp[5]
variable pyz1 equal f_avgp[6]

# Compute elastic constant from pressure tensor
# d1 = -[pxx1-pxx0]/[(]v_delta/v_len0] defined in input script
variable C1pos equal 15.3331356901091
variable C2pos equal -34.9924142240422
variable C3pos equal 26.0704736653718
variable C4pos equal 7.18320028743343
variable C5pos equal -14.5974562297381
variable C6pos equal 2.69640083015992

# Combine positive and negative
variable C16 equal 0.5*(47.2863670919269+15.3331356901091)
variable C26 equal 0.5*(-9.16008997570593+-34.9924142240422)
variable C36 equal 0.5*(-32.7200533488322+26.0704736653718)
variable C46 equal 0.5*(-7.65813878343539+7.18320028743343)
variable C56 equal 0.5*(3.75688409871074+-14.5974562297381)
variable C66 equal 0.5*(-1.87667825179118+2.69640083015992)

# Delete dir to make sure it is not reused
variable dir delete

# Calc and output
include calc.mod.lmp
variable C11all equal 54.5948425275505
variable C22all equal -11.4522949138945
variable C33all equal -9.4693028990481

variable C44all equal 14.9119000748947
variable C55all equal 6.54602679250685
variable C66all equal 0.40986128918437

variable C12all equal 0.5*(-44.4768079564165+29.6543822139383)
variable C13all equal 0.5*(1.20796929795615+15.3500297078148)
variable C23all equal 0.5*(12.439562702137+1.71948297418265)

variable C14all equal 0.5*(4.7059946430164+-5.15833505695783)
variable C15all equal 0.5*(8.28357504578288+7.38984838000016)
variable C16all equal 0.5*(31.309751391018+1.69695992675033)

variable C24all equal 0.5*(16.0410477187122+5.70976453671635)
variable C25all equal 0.5*(3.8621387924158+-2.75589306462898)
variable C26all equal 0.5*(-22.0762520998741+4.76603682312084)

variable C34all equal 0.5*(13.5381476766864+12.125178370573)
variable C35all equal 0.5*(4.90200832061465+-9.17051764501511)
variable C36all equal 0.5*(-3.3247898417302+-7.88770049573737)

variable C45all equal 0.5*(-14.7214547978014+-19.0563909466791)
variable C46all equal 0.5*(-0.23746924800098+-4.87183413565642)
variable C56all equal 0.5*(-5.42028606551368+3.3938151093096)

# print stiffness tensor to "C.log"
print """
"""  file C.log screen no
