LAMMPS (2 Aug 2023 - Update 2)
# Initialization
units           real
dimension       3
boundary        p p p
atom_style      full
timestep        0.5   # fs
neighbor        2 bin
neigh_modify    every 10 delay 0 check no

# Read the initial sctructure
read_data       m-c-nb.data
Reading data file ...
  triclinic box = (0 0 0) to (17.6913 17.6913 18.9631) with tilt (-8.84565 0 0)
  reading atoms ...
  243 atoms
Finding 1-2 1-3 1-4 neighbors ...
     0 = max # of 1-2 neighbors
     0 = max # of 1-3 neighbors
     0 = max # of 1-4 neighbors
     1 = max # of special neighbors

# Assign the force field
pair_style reaxff NULL safezone 3.0 mincap 150
# pair_coeff * * CHONSSi.ff O Si
# pair_coeff * * CHOSiNa.ff O Si
pair_coeff * * SiOCHN_2018.ff O Si
# pair_coeff * * PDMSDecomp.ff Si O
# pair_coeff * * CHOFe.ff O Si

fix myqeq all qeq/reaxff 1 0.0 10.0 1.0e-6 reaxff maxiter 400

# Print system info
thermo          100
thermo_style    custom step temp press density pe etotal
# Save trajectory
#dump dump1 all custom 500 dump_opt.lammpstrj id type x y z q
dump dump1 all custom 200 dump_all.lammpstrj id type x y z q

# Energy minimization
print "*****Minimization starts.*****"
*****Minimization starts.*****
fix min1 all nve
minimize 1.0e-6 1.0e-6 100 1000

CITE-CITE-CITE-CITE-CITE-CITE-CITE-CITE-CITE-CITE-CITE-CITE-CITE

Your simulation uses code contributions which should be cited:

- pair reaxff command: doi:10.1016/j.parco.2011.08.005

@Article{Aktulga12,
 author = {H. M. Aktulga and J. C. Fogarty and S. A. Pandit and A. Y. Grama},
 title = {Parallel Reactive Molecular Dynamics: {N}umerical Methods and Algorithmic Techniques},
 journal = {Parallel Computing},
 year =    2012,
 volume =  38,
 number =  {4--5},
 pages =   {245--259}
}

- fix qeq/reaxff command: doi:10.1016/j.parco.2011.08.005

@Article{Aktulga12,
 author = {H. M. Aktulga and J. C. Fogarty and S. A. Pandit and A. Y. Grama},
 title = {Parallel Reactive Molecular Dynamics: {N}umerical Methods and Algorithmic Techniques},
 journal = {Parallel Computing},
 year =    2012,
 volume =  38,
 pages =   {245--259}
}

CITE-CITE-CITE-CITE-CITE-CITE-CITE-CITE-CITE-CITE-CITE-CITE-CITE

Step          Temp          Press         Density         PotEng         TotEng
0   0              30911.969      1.4518191     -30416.687     -30416.687
Loop time of 3.14768 on 8 procs for 41 steps with 243 atoms

Minimization stats:
  Stopping criterion = energy tolerance
  Energy initial, next-to-last, final =
  Force two-norm initial, final = 402.42858 482.30816
  Force max component initial, final = 116.76206 191.51893
  Final line search alpha, max atom move = 1.1663713e-11 2.2338218e-09
  Iterations, force evaluations = 41 295

unfix min1
# Save the optimized structure
write_data sio2_opt.data
System init for write_data ...
# Save trajectory
# dump dump_equil all custom 500 dump_equil.lammpstrj id type x y z q

# equilibration at 300K
print "*****Equilibration starts.*****"
*****Equilibration starts.*****
velocity        all create 300.0 12345
fix             equil1 all nvt temp 300.0 300.0 50.0
# 1 ps : 1e3 fs / 0.5 fs = 2e3 steps
run             5000
Step          Temp          Press         Density         PotEng         TotEng
41   300            13106.734      1.4518191     -30610.649     -30394.243
Averages over the last 26 of 52 rows, steps 2600 to 5041:
Temp Press Density PotEng TotEng
319.474 -4031.34 1.45182 -32035.7 -31805.3
Loop time of 41.1985 on 8 procs for 5000 steps with 243 atoms

# Save trajectory
# dump dump2 all custom 500 dump_heat.lammpstrj id type x y z q

# Heat to 600K
print "*****Heat starts.*****"
*****Heat starts.*****
unfix           equil1
fix             heat1 all npt temp 300.0 600.0 100.0 iso 1.0 1.0 100.0
# 1 ps : 1e3 fs / 0.5 fs = 2e3 steps
run             3000
Step          Temp          Press         Density         PotEng         TotEng
5041   316.16068     -7636.0323      1.4518191     -32335.831     -32107.767
Averages over the last 16 of 32 rows, steps 6600 to 8041:
Temp Press Density PotEng TotEng
535.17 1847.88 1.80757 -32772 -32386
Loop time of 29.7256 on 8 procs for 3000 steps with 243 atoms

# Save trajectory
# dump dump3 all custom 500 dump_cool.lammpstrj id type x y z q

# cool down to 300K
print "*****Cool starts.*****"
*****Cool starts.*****
unfix           heat1
fix             cool1 all npt temp 600.0 300.0 100.0 iso 1.0 1.0 100.0
# 1 ps : 1e3 fs / 0.5 fs = 2e3 steps
run             3000
Step          Temp          Press         Density         PotEng         TotEng
8041   552.48746     -1911.2117      1.7933383     -32829.639     -32431.098
Averages over the last 16 of 32 rows, steps 9600 to 11041:
Temp Press Density PotEng TotEng
423.891 -2598.6 1.85659 -33307.2 -33001.4
Loop time of 31.4765 on 8 procs for 3000 steps with 243 atoms

# equilibration at 300K
print "*****Equilibration starts.*****"
*****Equilibration starts.*****
velocity        all create 300.0 12345
unfix             cool1
fix             equil2 all nvt temp 300.0 300.0 50.0
# 1 ps : 1e3 fs / 0.5 fs = 2e3 steps
run             5000
Step          Temp          Press         Density         PotEng         TotEng
11041   300           -431.822        1.8798587     -33461.003     -33244.596
Averages over the last 26 of 52 rows, steps 13600 to 16041:
Temp Press Density PotEng TotEng
306.721 -1725.77 1.87986 -33549.2 -33328
Loop time of 60.3974 on 8 procs for 5000 steps with 243 atoms

print "*****Done.*****"
*****Done.*****
