LAMMPS (2 Aug 2023 - Update 2)
# Initialization
units           real
dimension       3
boundary        p p p
atom_style      full
timestep        0.5   # fs

# Define MD parameters
variable nevery equal 10                  # sampling interval
variable nrepeat equal 10                 # number of samples
variable nfreq equal 10*10
variable nthermo equal 100
# 1 ps : 1e3 fs / 0.5 fs = 2e3 steps
variable nequil equal 20*100
variable nrun equal 20*100
variable temp equal 300.0                # temperature of initial sample
variable tdamp equal 50.0                 # time constant for thermostat
variable seed equal 123457                # seed for thermostat
variable ufac equal 1.01325e-4         # pressure unit conversion, from atm to Gpa
variable up equal 0.01                  # the deformation magnitude 2.0e-2

# Read the initial sctructure
# box tilt large
variable structure string 333-RV-32-vasp
read_data       333-RV-32-vasp.data
Reading data file ...
  triclinic box = (0 0 0) to (15.7087 13.0868 17.5248) with tilt (-8.2042 -0.1458 -2.0056)
  reading atoms ...
  331 atoms
Finding 1-2 1-3 1-4 neighbors ...
     0 = max # of 1-2 neighbors
     0 = max # of 1-3 neighbors
     0 = max # of 1-4 neighbors
     1 = max # of special neighbors

# Energy minimization
print "*****Minimization starts.*****"
*****Minimization starts.*****
velocity        all create 300 123457 dist gaussian
minimize 1.0e-6 1.0e-6 100 1000
Step          Temp          E_pair         E_mol          TotEng         Press
0   300            0              0              295.10019      3744.3425
Loop time of 8.68121e-05 on 16 procs for 1 steps with 331 atoms

Minimization stats:
  Stopping criterion = search direction is not downhill
  Energy initial, next-to-last, final =
  Force two-norm initial, final = 0 0
  Force max component initial, final = 0 0
  Final line search alpha, max atom move = 0 0
  Iterations, force evaluations = 1 0

min_style cg
# Save the optimized structure
write_data 333-RV-32-vasp_opt.data
System init for write_data ...

# Equilibration
include ff.mod.lmp
# Setup forcefield, system
# undefine any fix ave/* fix before using reset_timestep
if "$(is_defined(fix,avgp))" then "unfix avgp"
reset_timestep 0

# Assign the force field
pair_style reaxff NULL safezone 3.0 mincap 150
# pair_coeff * * CHONSSi.ff O Si
# pair_coeff * * CHOSiNa.ff O Si
# pair_coeff * * SiOCHN_2018.ff O Si
# pair_coeff * * PDMSDecomp.ff Si O
pair_coeff * * CHONSi.ff C H O Si
# pair_coeff * * CHOFe.ff O Si

# charge method for reaxff
fix myqeq all qeq/reaxff 1 0.0 10.0 1.0e-6 reaxff maxiter 400
# Setup neighbor style
neighbor        2 bin
neigh_modify    every 10 delay 0 check no

# Setup output
fix avgp all ave/time  10 10 100 c_thermo_press mode vector
thermo		100
thermo_style custom step temp pe press f_avgp[1] vol
thermo_modify norm no

# equilibration
fix 4 all nve
fix 5 all langevin 300 300 50 123457

thermo_style custom step temp pe press f_avgp[1] density vol
run 2000

CITE-CITE-CITE-CITE-CITE-CITE-CITE-CITE-CITE-CITE-CITE-CITE-CITE

Your simulation uses code contributions which should be cited:

- pair reaxff command: doi:10.1016/j.parco.2011.08.005

@Article{Aktulga12,
 author = {H. M. Aktulga and J. C. Fogarty and S. A. Pandit and A. Y. Grama},
 title = {Parallel Reactive Molecular Dynamics: {N}umerical Methods and Algorithmic Techniques},
 journal = {Parallel Computing},
 year =    2012,
 volume =  38,
 number =  {4--5},
 pages =   {245--259}
}

- fix qeq/reaxff command: doi:10.1016/j.parco.2011.08.005

@Article{Aktulga12,
 author = {H. M. Aktulga and J. C. Fogarty and S. A. Pandit and A. Y. Grama},
 title = {Parallel Reactive Molecular Dynamics: {N}umerical Methods and Algorithmic Techniques},
 journal = {Parallel Computing},
 year =    2012,
 volume =  38,
 pages =   {245--259}
}

CITE-CITE-CITE-CITE-CITE-CITE-CITE-CITE-CITE-CITE-CITE-CITE-CITE

Step          Temp          PotEng         Press        f_avgp[1]       Density         Volume
0   300           -34729.82       144799.92      0              1.400369       3602.6891
Averages over the last 11 of 21 rows, steps 1000 to 2000:
Temp PotEng Press f_avgp[1] Density Volume
297.057 -36423.7 -2961.16 -1147.13 1.40037 3602.69
Loop time of 100.795 on 16 procs for 2000 steps with 331 atoms

# Save the optimized structure

# Save initial pressure, box size
variable pxx0 equal f_avgp[1]
variable pyy0 equal f_avgp[2]
variable pzz0 equal f_avgp[3]
variable pxy0 equal f_avgp[4]
variable pxz0 equal f_avgp[5]
variable pyz0 equal f_avgp[6]
# use tmp to save constants
variable tmp equal lx
variable lx0 equal 15.7087
variable tmp equal ly
variable ly0 equal 13.0868
variable tmp equal lz
variable lz0 equal 17.5248

# define the derivatives, w.r.t. strain tensor
# Constants uses $, variables use v_
variable d1 equal -(v_pxx1--6178.15907404304)/(v_delta/v_len0)*0.000101325
variable d2 equal -(v_pyy1--8509.67100631744)/(v_delta/v_len0)*0.000101325
variable d3 equal -(v_pzz1--8114.76879185811)/(v_delta/v_len0)*0.000101325
variable d4 equal -(v_pyz1--1000.05504518563)/(v_delta/v_len0)*0.000101325*0.5
variable d5 equal -(v_pxz1-711.234779185312)/(v_delta/v_len0)*0.000101325*0.5
variable d6 equal -(v_pxy1-1315.87587182111)/(v_delta/v_len0)*0.000101325*0.5

# Write restart
write_restart equil.res
System init for write_restart ...

# dir: direction
# uxx Perturbation
variable dir equal 1
include displace.mod.lmp

# Find which reference length to use
variable len0 equal 15.7087

# Reset box and simulation parameters
clear
# box tilt large
read_restart equil.res
Reading restart file ...
  restart file = 2 Aug 2023, LAMMPS = 2 Aug 2023
  restoring atom style full from restart
  triclinic box = (0 0 0) to (15.7087 13.0868 17.5248) with tilt (-8.2042 -0.1458 -2.0056)
  pair style reaxff stores no restart info
  331 atoms
Finding 1-2 1-3 1-4 neighbors ...
     0 = max # of 1-2 neighbors
     0 = max # of 1-3 neighbors
     0 = max # of 1-4 neighbors
     1 = max # of special neighbors
  read_restart CPU = 0.006 seconds

# Negative deformation
variable delta equal -0.01*15.7087
variable deltaxy equal -0.01*xy
variable deltaxz equal -0.01*xz
variable deltayz equal -0.01*yz
fix deform_n all deform 100 x delta 0 -0.157087 xy delta 0.082042 xz delta 0.001458 remap x units box

# Run MD for Negative deformation
*****Negative-deform 1 starts.*****
include ff.mod.lmp
# Setup forcefield, system
# undefine any fix ave/* fix before using reset_timestep
if "$(is_defined(fix,avgp))" then "unfix avgp"
reset_timestep 0

# Assign the force field
pair_style reaxff NULL safezone 3.0 mincap 150
# pair_coeff * * CHONSSi.ff O Si
# pair_coeff * * CHOSiNa.ff O Si
# pair_coeff * * SiOCHN_2018.ff O Si
# pair_coeff * * PDMSDecomp.ff Si O
pair_coeff * * CHONSi.ff C H O Si
# pair_coeff * * CHOFe.ff O Si

# charge method for reaxff
fix myqeq all qeq/reaxff 1 0.0 10.0 1.0e-6 reaxff maxiter 400
# Setup neighbor style
neighbor        2 bin
neigh_modify    every 10 delay 0 check no

# Setup output
fix avgp all ave/time  10 10 100 c_thermo_press mode vector
thermo		100
thermo_style custom step temp pe press f_avgp[1] vol
thermo_modify norm no

# equilibration
fix 4 all nve
fix 5 all langevin 300 300 50 123457

# save trajectory
dump dump_neg1 all custom 100 dump/neg_deform1.lammpstrj id type x y z
variable dir1 equal 1
run 2000
Step          Temp          PotEng         Press        f_avgp[1]        Volume
0   289.28576     -36419.523     -15657.838      0              3602.6891
Averages over the last 11 of 21 rows, steps 1000 to 2000:
Temp PotEng Press f_avgp[1] Volume
307.002 -36484.2 2969.57 3479.91 3575.67
Loop time of 100.959 on 16 procs for 2000 steps with 331 atoms

unfix deform_n

# Obtain new stress tensor Negative deformation
variable pxx1 equal f_avgp[1]
variable pyy1 equal f_avgp[2]
variable pzz1 equal f_avgp[3]
variable pxy1 equal f_avgp[4]
variable pxz1 equal f_avgp[5]
variable pyz1 equal f_avgp[6]

# Compute elastic constant from pressure
# d1 = -[pxx1-pxx0]/[(]v_delta/v_len0] defined in input script
variable C1neg equal 67.928028453423
variable C2neg equal 94.4920261203485
variable C3neg equal 84.6886920454932
variable C4neg equal 2.41964351742844
variable C5neg equal -2.70767629954238
variable C6neg equal -9.73762332004032

# Reset box and simulation parameters
clear
# box tilt large
read_restart equil.res
Reading restart file ...
  restart file = 2 Aug 2023, LAMMPS = 2 Aug 2023
  restoring atom style full from restart
  triclinic box = (0 0 0) to (15.7087 13.0868 17.5248) with tilt (-8.2042 -0.1458 -2.0056)
  pair style reaxff stores no restart info
  331 atoms
Finding 1-2 1-3 1-4 neighbors ...
     0 = max # of 1-2 neighbors
     0 = max # of 1-3 neighbors
     0 = max # of 1-4 neighbors
     1 = max # of special neighbors
  read_restart CPU = 0.003 seconds

# Positive deformation
variable delta equal 0.01*15.7087
variable deltaxy equal 0.01*xy
variable deltaxz equal 0.01*xz
variable deltayz equal 0.01*yz
fix deform_p all deform 100 x delta 0 0.157087 xy delta -0.082042 xz delta -0.001458 remap x units box

# Run deformation MD
*****Positive-deform 1 starts.*****
include ff.mod.lmp
# Setup forcefield, system
# undefine any fix ave/* fix before using reset_timestep
if "$(is_defined(fix,avgp))" then "unfix avgp"
reset_timestep 0

# Assign the force field
pair_style reaxff NULL safezone 3.0 mincap 150
# pair_coeff * * CHONSSi.ff O Si
# pair_coeff * * CHOSiNa.ff O Si
# pair_coeff * * SiOCHN_2018.ff O Si
# pair_coeff * * PDMSDecomp.ff Si O
pair_coeff * * CHONSi.ff C H O Si
# pair_coeff * * CHOFe.ff O Si

# charge method for reaxff
fix myqeq all qeq/reaxff 1 0.0 10.0 1.0e-6 reaxff maxiter 400
# Setup neighbor style
neighbor        2 bin
neigh_modify    every 10 delay 0 check no

# Setup output
fix avgp all ave/time  10 10 100 c_thermo_press mode vector
thermo		100
thermo_style custom step temp pe press f_avgp[1] vol
thermo_modify norm no

# equilibration
fix 4 all nve
fix 5 all langevin 300 300 50 123457

# save trajectory
dump dump_pos1 all custom 100 dump/pos_deform1.lammpstrj id type x y z
variable dir1 equal 1
run 2000
Step          Temp          PotEng         Press        f_avgp[1]        Volume
0   289.28576     -36419.523     -15657.838      0              3602.6891
Averages over the last 11 of 21 rows, steps 1000 to 2000:
Temp PotEng Press f_avgp[1] Volume
298.755 -36463.4 -4904.41 -6077.39 3629.71
Loop time of 100.081 on 16 procs for 2000 steps with 331 atoms

unfix deform_p

# Obtain new stress tensor
variable pxx1 equal f_avgp[1]
variable pyy1 equal f_avgp[2]
variable pzz1 equal f_avgp[3]
variable pxy1 equal f_avgp[4]
variable pxz1 equal f_avgp[5]
variable pyz1 equal f_avgp[6]

# Compute elastic constant from pressure tensor
# d1 = -[pxx1-pxx0]/[(]v_delta/v_len0] defined in input script
variable C1pos equal 59.1259961389548
variable C2pos equal -26.7140714221767
variable C3pos equal -39.4425732171342
variable C4pos equal 0.461523710309403
variable C5pos equal 1.98755654017177
variable C6pos equal 6.10082116523129

# Combine positive and negative
variable C11 equal 0.5*(67.928028453423+59.1259961389548)
variable C21 equal 0.5*(94.4920261203485+-26.7140714221767)
variable C31 equal 0.5*(84.6886920454932+-39.4425732171342)
variable C41 equal 0.5*(2.41964351742844+0.461523710309403)
variable C51 equal 0.5*(-2.70767629954238+1.98755654017177)
variable C61 equal 0.5*(-9.73762332004032+6.10082116523129)

# Delete dir to make sure it is not reused
variable dir delete
# uyy Perturbation
variable dir equal 2
include displace.mod.lmp

# Find which reference length to use
variable len0 equal 13.0868

# Reset box and simulation parameters
clear
# box tilt large
read_restart equil.res
Reading restart file ...
  restart file = 2 Aug 2023, LAMMPS = 2 Aug 2023
  restoring atom style full from restart
  triclinic box = (0 0 0) to (15.7087 13.0868 17.5248) with tilt (-8.2042 -0.1458 -2.0056)
  pair style reaxff stores no restart info
  331 atoms
Finding 1-2 1-3 1-4 neighbors ...
     0 = max # of 1-2 neighbors
     0 = max # of 1-3 neighbors
     0 = max # of 1-4 neighbors
     1 = max # of special neighbors
  read_restart CPU = 0.004 seconds

# Negative deformation
variable delta equal -0.01*13.0868
variable deltaxy equal -0.01*xy
variable deltaxz equal -0.01*xz
variable deltayz equal -0.01*yz
fix deform_n all deform 100 y delta 0 -0.130868 yz delta 0.020056 remap x units box

# Run MD for Negative deformation
*****Negative-deform 2 starts.*****
include ff.mod.lmp
# Setup forcefield, system
# undefine any fix ave/* fix before using reset_timestep
if "$(is_defined(fix,avgp))" then "unfix avgp"
reset_timestep 0

# Assign the force field
pair_style reaxff NULL safezone 3.0 mincap 150
# pair_coeff * * CHONSSi.ff O Si
# pair_coeff * * CHOSiNa.ff O Si
# pair_coeff * * SiOCHN_2018.ff O Si
# pair_coeff * * PDMSDecomp.ff Si O
pair_coeff * * CHONSi.ff C H O Si
# pair_coeff * * CHOFe.ff O Si

# charge method for reaxff
fix myqeq all qeq/reaxff 1 0.0 10.0 1.0e-6 reaxff maxiter 400
# Setup neighbor style
neighbor        2 bin
neigh_modify    every 10 delay 0 check no

# Setup output
fix avgp all ave/time  10 10 100 c_thermo_press mode vector
thermo		100
thermo_style custom step temp pe press f_avgp[1] vol
thermo_modify norm no

# equilibration
fix 4 all nve
fix 5 all langevin 300 300 50 123457

# save trajectory
dump dump_neg2 all custom 100 dump/neg_deform2.lammpstrj id type x y z
variable dir1 equal 2
run 2000
Step          Temp          PotEng         Press        f_avgp[1]        Volume
0   289.28576     -36419.523     -15657.838      0              3602.6891
Averages over the last 11 of 21 rows, steps 1000 to 2000:
Temp PotEng Press f_avgp[1] Volume
300.4 -36492.7 -3916.24 -1682.7 3575.67
Loop time of 101.782 on 16 procs for 2000 steps with 331 atoms

unfix deform_n

# Obtain new stress tensor Negative deformation
variable pxx1 equal f_avgp[1]
variable pyy1 equal f_avgp[2]
variable pzz1 equal f_avgp[3]
variable pxy1 equal f_avgp[4]
variable pxz1 equal f_avgp[5]
variable pyz1 equal f_avgp[6]

# Compute elastic constant from pressure
# d1 = -[pxx1-pxx0]/[(]v_delta/v_len0] defined in input script
variable C1neg equal 63.7204648569518
variable C2neg equal 49.6507895398451
variable C3neg equal 13.9598237846819
variable C4neg equal -4.38265085530141
variable C5neg equal -0.31898244902095
variable C6neg equal -9.69980386544865

# Reset box and simulation parameters
clear
# box tilt large
read_restart equil.res
Reading restart file ...
  restart file = 2 Aug 2023, LAMMPS = 2 Aug 2023
  restoring atom style full from restart
  triclinic box = (0 0 0) to (15.7087 13.0868 17.5248) with tilt (-8.2042 -0.1458 -2.0056)
  pair style reaxff stores no restart info
  331 atoms
Finding 1-2 1-3 1-4 neighbors ...
     0 = max # of 1-2 neighbors
     0 = max # of 1-3 neighbors
     0 = max # of 1-4 neighbors
     1 = max # of special neighbors
  read_restart CPU = 0.004 seconds

# Positive deformation
variable delta equal 0.01*13.0868
variable deltaxy equal 0.01*xy
variable deltaxz equal 0.01*xz
variable deltayz equal 0.01*yz
fix deform_p all deform 100 y delta 0 0.130868 yz delta -0.020056 remap x units box

# Run deformation MD
*****Positive-deform 2 starts.*****
include ff.mod.lmp
# Setup forcefield, system
# undefine any fix ave/* fix before using reset_timestep
if "$(is_defined(fix,avgp))" then "unfix avgp"
reset_timestep 0

# Assign the force field
pair_style reaxff NULL safezone 3.0 mincap 150
# pair_coeff * * CHONSSi.ff O Si
# pair_coeff * * CHOSiNa.ff O Si
# pair_coeff * * SiOCHN_2018.ff O Si
# pair_coeff * * PDMSDecomp.ff Si O
pair_coeff * * CHONSi.ff C H O Si
# pair_coeff * * CHOFe.ff O Si

# charge method for reaxff
fix myqeq all qeq/reaxff 1 0.0 10.0 1.0e-6 reaxff maxiter 400
# Setup neighbor style
neighbor        2 bin
neigh_modify    every 10 delay 0 check no

# Setup output
fix avgp all ave/time  10 10 100 c_thermo_press mode vector
thermo		100
thermo_style custom step temp pe press f_avgp[1] vol
thermo_modify norm no

# equilibration
fix 4 all nve
fix 5 all langevin 300 300 50 123457

# save trajectory
dump dump_pos2 all custom 100 dump/pos_deform2.lammpstrj id type x y z
variable dir1 equal 2
run 2000
Step          Temp          PotEng         Press        f_avgp[1]        Volume
0   289.28576     -36419.523     -15657.838      0              3602.6891
Averages over the last 11 of 21 rows, steps 1000 to 2000:
Temp PotEng Press f_avgp[1] Volume
297.453 -36470.3 -4905.26 -5665.67 3629.71
Loop time of 99.7422 on 16 procs for 2000 steps with 331 atoms

unfix deform_p

# Obtain new stress tensor
variable pxx1 equal f_avgp[1]
variable pyy1 equal f_avgp[2]
variable pzz1 equal f_avgp[3]
variable pxy1 equal f_avgp[4]
variable pxz1 equal f_avgp[5]
variable pyz1 equal f_avgp[6]

# Compute elastic constant from pressure tensor
# d1 = -[pxx1-pxx0]/[(]v_delta/v_len0] defined in input script
variable C1pos equal 28.8677565574465
variable C2pos equal 23.4453050576147
variable C3pos equal -6.05724971142065
variable C4pos equal 5.92055910673278
variable C5pos equal -8.57433161957883
variable C6pos equal 1.85682614171769

# Combine positive and negative
variable C12 equal 0.5*(63.7204648569518+28.8677565574465)
variable C22 equal 0.5*(49.6507895398451+23.4453050576147)
variable C32 equal 0.5*(13.9598237846819+-6.05724971142065)
variable C42 equal 0.5*(-4.38265085530141+5.92055910673278)
variable C52 equal 0.5*(-0.31898244902095+-8.57433161957883)
variable C62 equal 0.5*(-9.69980386544865+1.85682614171769)

# Delete dir to make sure it is not reused
variable dir delete
# uzz Perturbation
variable dir equal 3
include displace.mod.lmp

# Find which reference length to use
variable len0 equal 17.5248

# Reset box and simulation parameters
clear
# box tilt large
read_restart equil.res
Reading restart file ...
  restart file = 2 Aug 2023, LAMMPS = 2 Aug 2023
  restoring atom style full from restart
  triclinic box = (0 0 0) to (15.7087 13.0868 17.5248) with tilt (-8.2042 -0.1458 -2.0056)
  pair style reaxff stores no restart info
  331 atoms
Finding 1-2 1-3 1-4 neighbors ...
     0 = max # of 1-2 neighbors
     0 = max # of 1-3 neighbors
     0 = max # of 1-4 neighbors
     1 = max # of special neighbors
  read_restart CPU = 0.003 seconds

# Negative deformation
variable delta equal -0.01*17.5248
variable deltaxy equal -0.01*xy
variable deltaxz equal -0.01*xz
variable deltayz equal -0.01*yz
fix deform_n all deform 100 z delta 0 -0.175248 remap x units box

# Run MD for Negative deformation
*****Negative-deform 3 starts.*****
include ff.mod.lmp
# Setup forcefield, system
# undefine any fix ave/* fix before using reset_timestep
if "$(is_defined(fix,avgp))" then "unfix avgp"
reset_timestep 0

# Assign the force field
pair_style reaxff NULL safezone 3.0 mincap 150
# pair_coeff * * CHONSSi.ff O Si
# pair_coeff * * CHOSiNa.ff O Si
# pair_coeff * * SiOCHN_2018.ff O Si
# pair_coeff * * PDMSDecomp.ff Si O
pair_coeff * * CHONSi.ff C H O Si
# pair_coeff * * CHOFe.ff O Si

# charge method for reaxff
fix myqeq all qeq/reaxff 1 0.0 10.0 1.0e-6 reaxff maxiter 400
# Setup neighbor style
neighbor        2 bin
neigh_modify    every 10 delay 0 check no

# Setup output
fix avgp all ave/time  10 10 100 c_thermo_press mode vector
thermo		100
thermo_style custom step temp pe press f_avgp[1] vol
thermo_modify norm no

# equilibration
fix 4 all nve
fix 5 all langevin 300 300 50 123457

# save trajectory
dump dump_neg3 all custom 100 dump/neg_deform3.lammpstrj id type x y z
variable dir1 equal 3
run 2000
Step          Temp          PotEng         Press        f_avgp[1]        Volume
0   289.28576     -36419.523     -15657.838      0              3602.6891
Averages over the last 11 of 21 rows, steps 1000 to 2000:
Temp PotEng Press f_avgp[1] Volume
299.185 -36482.3 -4544.94 -295.834 3575.67
Loop time of 102.595 on 16 procs for 2000 steps with 331 atoms

unfix deform_n

# Obtain new stress tensor Negative deformation
variable pxx1 equal f_avgp[1]
variable pyy1 equal f_avgp[2]
variable pzz1 equal f_avgp[3]
variable pxy1 equal f_avgp[4]
variable pxz1 equal f_avgp[5]
variable pyz1 equal f_avgp[6]

# Compute elastic constant from pressure
# d1 = -[pxx1-pxx0]/[(]v_delta/v_len0] defined in input script
variable C1neg equal 31.7535743456915
variable C2neg equal 43.7543661433367
variable C3neg equal 46.1382739387826
variable C4neg equal 7.33068721714406
variable C5neg equal -10.1691873373307
variable C6neg equal 9.27783161033221

# Reset box and simulation parameters
clear
# box tilt large
read_restart equil.res
Reading restart file ...
  restart file = 2 Aug 2023, LAMMPS = 2 Aug 2023
  restoring atom style full from restart
  triclinic box = (0 0 0) to (15.7087 13.0868 17.5248) with tilt (-8.2042 -0.1458 -2.0056)
  pair style reaxff stores no restart info
  331 atoms
Finding 1-2 1-3 1-4 neighbors ...
     0 = max # of 1-2 neighbors
     0 = max # of 1-3 neighbors
     0 = max # of 1-4 neighbors
     1 = max # of special neighbors
  read_restart CPU = 0.004 seconds

# Positive deformation
variable delta equal 0.01*17.5248
variable deltaxy equal 0.01*xy
variable deltaxz equal 0.01*xz
variable deltayz equal 0.01*yz
fix deform_p all deform 100 z delta 0 0.175248 remap x units box

# Run deformation MD
*****Positive-deform 3 starts.*****
include ff.mod.lmp
# Setup forcefield, system
# undefine any fix ave/* fix before using reset_timestep
if "$(is_defined(fix,avgp))" then "unfix avgp"
reset_timestep 0

# Assign the force field
pair_style reaxff NULL safezone 3.0 mincap 150
# pair_coeff * * CHONSSi.ff O Si
# pair_coeff * * CHOSiNa.ff O Si
# pair_coeff * * SiOCHN_2018.ff O Si
# pair_coeff * * PDMSDecomp.ff Si O
pair_coeff * * CHONSi.ff C H O Si
# pair_coeff * * CHOFe.ff O Si

# charge method for reaxff
fix myqeq all qeq/reaxff 1 0.0 10.0 1.0e-6 reaxff maxiter 400
# Setup neighbor style
neighbor        2 bin
neigh_modify    every 10 delay 0 check no

# Setup output
fix avgp all ave/time  10 10 100 c_thermo_press mode vector
thermo		100
thermo_style custom step temp pe press f_avgp[1] vol
thermo_modify norm no

# equilibration
fix 4 all nve
fix 5 all langevin 300 300 50 123457

# save trajectory
dump dump_pos3 all custom 100 dump/pos_deform3.lammpstrj id type x y z
variable dir1 equal 3
run 2000
Step          Temp          PotEng         Press        f_avgp[1]        Volume
0   289.28576     -36419.523     -15657.838      0              3602.6891
Averages over the last 11 of 21 rows, steps 1000 to 2000:
Temp PotEng Press f_avgp[1] Volume
293.726 -36480.5 -6896.67 -2874.81 3629.71
Loop time of 102.09 on 16 procs for 2000 steps with 331 atoms

unfix deform_p

# Obtain new stress tensor
variable pxx1 equal f_avgp[1]
variable pyy1 equal f_avgp[2]
variable pzz1 equal f_avgp[3]
variable pxy1 equal f_avgp[4]
variable pxz1 equal f_avgp[5]
variable pyz1 equal f_avgp[6]

# Compute elastic constant from pressure tensor
# d1 = -[pxx1-pxx0]/[(]v_delta/v_len0] defined in input script
variable C1pos equal -18.1754664689762
variable C2pos equal 9.5340172485861
variable C3pos equal 63.3456405475961
variable C4pos equal 5.54923324078625
variable C5pos equal 19.6195039891135
variable C6pos equal -5.90490110465687

# Combine positive and negative
variable C13 equal 0.5*(31.7535743456915+-18.1754664689762)
variable C23 equal 0.5*(43.7543661433367+9.5340172485861)
variable C33 equal 0.5*(46.1382739387826+63.3456405475961)
variable C43 equal 0.5*(7.33068721714406+5.54923324078625)
variable C53 equal 0.5*(-10.1691873373307+19.6195039891135)
variable C63 equal 0.5*(9.27783161033221+-5.90490110465687)

# Delete dir to make sure it is not reused
variable dir delete
# uyz Perturbation
variable dir equal 4
include displace.mod.lmp

# Find which reference length to use
variable len0 equal 17.5248

# Reset box and simulation parameters
clear
# box tilt large
read_restart equil.res
Reading restart file ...
  restart file = 2 Aug 2023, LAMMPS = 2 Aug 2023
  restoring atom style full from restart
  triclinic box = (0 0 0) to (15.7087 13.0868 17.5248) with tilt (-8.2042 -0.1458 -2.0056)
  pair style reaxff stores no restart info
  331 atoms
Finding 1-2 1-3 1-4 neighbors ...
     0 = max # of 1-2 neighbors
     0 = max # of 1-3 neighbors
     0 = max # of 1-4 neighbors
     1 = max # of special neighbors
  read_restart CPU = 0.003 seconds

# Negative deformation
variable delta equal -0.01*17.5248
variable deltaxy equal -0.01*xy
variable deltaxz equal -0.01*xz
variable deltayz equal -0.01*yz
fix deform_n all deform 100 yz delta -0.175248 remap x units box

# Run MD for Negative deformation
*****Negative-deform 4 starts.*****
include ff.mod.lmp
# Setup forcefield, system
# undefine any fix ave/* fix before using reset_timestep
if "$(is_defined(fix,avgp))" then "unfix avgp"
reset_timestep 0

# Assign the force field
pair_style reaxff NULL safezone 3.0 mincap 150
# pair_coeff * * CHONSSi.ff O Si
# pair_coeff * * CHOSiNa.ff O Si
# pair_coeff * * SiOCHN_2018.ff O Si
# pair_coeff * * PDMSDecomp.ff Si O
pair_coeff * * CHONSi.ff C H O Si
# pair_coeff * * CHOFe.ff O Si

# charge method for reaxff
fix myqeq all qeq/reaxff 1 0.0 10.0 1.0e-6 reaxff maxiter 400
# Setup neighbor style
neighbor        2 bin
neigh_modify    every 10 delay 0 check no

# Setup output
fix avgp all ave/time  10 10 100 c_thermo_press mode vector
thermo		100
thermo_style custom step temp pe press f_avgp[1] vol
thermo_modify norm no

# equilibration
fix 4 all nve
fix 5 all langevin 300 300 50 123457

# save trajectory
dump dump_neg4 all custom 100 dump/neg_deform4.lammpstrj id type x y z
variable dir1 equal 4
run 2000
Step          Temp          PotEng         Press        f_avgp[1]        Volume
0   289.28576     -36419.523     -15657.838      0              3602.6891
Averages over the last 11 of 21 rows, steps 1000 to 2000:
Temp PotEng Press f_avgp[1] Volume
303.195 -36481.8 -4387.49 873.553 3602.69
Loop time of 100.907 on 16 procs for 2000 steps with 331 atoms

unfix deform_n

# Obtain new stress tensor Negative deformation
variable pxx1 equal f_avgp[1]
variable pyy1 equal f_avgp[2]
variable pzz1 equal f_avgp[3]
variable pxy1 equal f_avgp[4]
variable pxz1 equal f_avgp[5]
variable pyz1 equal f_avgp[6]

# Compute elastic constant from pressure
# d1 = -[pxx1-pxx0]/[(]v_delta/v_len0] defined in input script
variable C1neg equal 90.0308065797375
variable C2neg equal 67.7799905909252
variable C3neg equal 41.1258783284663
variable C4neg equal 15.0119507500369
variable C5neg equal -8.80764285676671
variable C6neg equal -1.45696738282492

# Reset box and simulation parameters
clear
# box tilt large
read_restart equil.res
Reading restart file ...
  restart file = 2 Aug 2023, LAMMPS = 2 Aug 2023
  restoring atom style full from restart
  triclinic box = (0 0 0) to (15.7087 13.0868 17.5248) with tilt (-8.2042 -0.1458 -2.0056)
  pair style reaxff stores no restart info
  331 atoms
Finding 1-2 1-3 1-4 neighbors ...
     0 = max # of 1-2 neighbors
     0 = max # of 1-3 neighbors
     0 = max # of 1-4 neighbors
     1 = max # of special neighbors
  read_restart CPU = 0.004 seconds

# Positive deformation
variable delta equal 0.01*17.5248
variable deltaxy equal 0.01*xy
variable deltaxz equal 0.01*xz
variable deltayz equal 0.01*yz
fix deform_p all deform 100 yz delta 0.175248 remap x units box

# Run deformation MD
*****Positive-deform 4 starts.*****
include ff.mod.lmp
# Setup forcefield, system
# undefine any fix ave/* fix before using reset_timestep
if "$(is_defined(fix,avgp))" then "unfix avgp"
reset_timestep 0

# Assign the force field
pair_style reaxff NULL safezone 3.0 mincap 150
# pair_coeff * * CHONSSi.ff O Si
# pair_coeff * * CHOSiNa.ff O Si
# pair_coeff * * SiOCHN_2018.ff O Si
# pair_coeff * * PDMSDecomp.ff Si O
pair_coeff * * CHONSi.ff C H O Si
# pair_coeff * * CHOFe.ff O Si

# charge method for reaxff
fix myqeq all qeq/reaxff 1 0.0 10.0 1.0e-6 reaxff maxiter 400
# Setup neighbor style
neighbor        2 bin
neigh_modify    every 10 delay 0 check no

# Setup output
fix avgp all ave/time  10 10 100 c_thermo_press mode vector
thermo		100
thermo_style custom step temp pe press f_avgp[1] vol
thermo_modify norm no

# equilibration
fix 4 all nve
fix 5 all langevin 300 300 50 123457

# save trajectory
dump dump_pos4 all custom 100 dump/pos_deform4.lammpstrj id type x y z
variable dir1 equal 4
run 2000
Step          Temp          PotEng         Press        f_avgp[1]        Volume
0   289.28576     -36419.523     -15657.838      0              3602.6891
Averages over the last 11 of 21 rows, steps 1000 to 2000:
Temp PotEng Press f_avgp[1] Volume
296.744 -36494 -6684.78 -3607.39 3602.69
Loop time of 101.216 on 16 procs for 2000 steps with 331 atoms

unfix deform_p

# Obtain new stress tensor
variable pxx1 equal f_avgp[1]
variable pyy1 equal f_avgp[2]
variable pzz1 equal f_avgp[3]
variable pxy1 equal f_avgp[4]
variable pxz1 equal f_avgp[5]
variable pyz1 equal f_avgp[6]

# Compute elastic constant from pressure tensor
# d1 = -[pxx1-pxx0]/[(]v_delta/v_len0] defined in input script
variable C1pos equal -46.0371810771686
variable C2pos equal -87.6795366166185
variable C3pos equal -79.0949661080369
variable C4pos equal 22.7458315901326
variable C5pos equal 12.0736922193488
variable C6pos equal -1.0355683140016

# Combine positive and negative
variable C14 equal 0.5*(90.0308065797375+-46.0371810771686)
variable C24 equal 0.5*(67.7799905909252+-87.6795366166185)
variable C34 equal 0.5*(41.1258783284663+-79.0949661080369)
variable C44 equal 0.5*(15.0119507500369+22.7458315901326)
variable C54 equal 0.5*(-8.80764285676671+12.0736922193488)
variable C64 equal 0.5*(-1.45696738282492+-1.0355683140016)

# Delete dir to make sure it is not reused
variable dir delete
# uxz Perturbation
variable dir equal 5
include displace.mod.lmp

# Find which reference length to use
variable len0 equal 17.5248

# Reset box and simulation parameters
clear
# box tilt large
read_restart equil.res
Reading restart file ...
  restart file = 2 Aug 2023, LAMMPS = 2 Aug 2023
  restoring atom style full from restart
  triclinic box = (0 0 0) to (15.7087 13.0868 17.5248) with tilt (-8.2042 -0.1458 -2.0056)
  pair style reaxff stores no restart info
  331 atoms
Finding 1-2 1-3 1-4 neighbors ...
     0 = max # of 1-2 neighbors
     0 = max # of 1-3 neighbors
     0 = max # of 1-4 neighbors
     1 = max # of special neighbors
  read_restart CPU = 0.006 seconds

# Negative deformation
variable delta equal -0.01*17.5248
variable deltaxy equal -0.01*xy
variable deltaxz equal -0.01*xz
variable deltayz equal -0.01*yz
fix deform_n all deform 100 xz delta -0.175248 remap x units box

# Run MD for Negative deformation
*****Negative-deform 5 starts.*****
include ff.mod.lmp
# Setup forcefield, system
# undefine any fix ave/* fix before using reset_timestep
if "$(is_defined(fix,avgp))" then "unfix avgp"
reset_timestep 0

# Assign the force field
pair_style reaxff NULL safezone 3.0 mincap 150
# pair_coeff * * CHONSSi.ff O Si
# pair_coeff * * CHOSiNa.ff O Si
# pair_coeff * * SiOCHN_2018.ff O Si
# pair_coeff * * PDMSDecomp.ff Si O
pair_coeff * * CHONSi.ff C H O Si
# pair_coeff * * CHOFe.ff O Si

# charge method for reaxff
fix myqeq all qeq/reaxff 1 0.0 10.0 1.0e-6 reaxff maxiter 400
# Setup neighbor style
neighbor        2 bin
neigh_modify    every 10 delay 0 check no

# Setup output
fix avgp all ave/time  10 10 100 c_thermo_press mode vector
thermo		100
thermo_style custom step temp pe press f_avgp[1] vol
thermo_modify norm no

# equilibration
fix 4 all nve
fix 5 all langevin 300 300 50 123457

# save trajectory
dump dump_neg5 all custom 100 dump/neg_deform5.lammpstrj id type x y z
variable dir1 equal 5
run 2000
Step          Temp          PotEng         Press        f_avgp[1]        Volume
0   289.28576     -36419.523     -15657.838      0              3602.6891
Averages over the last 11 of 21 rows, steps 1000 to 2000:
Temp PotEng Press f_avgp[1] Volume
304.805 -36471 -4963.76 -3304.59 3602.69
Loop time of 100.446 on 16 procs for 2000 steps with 331 atoms

unfix deform_n

# Obtain new stress tensor Negative deformation
variable pxx1 equal f_avgp[1]
variable pyy1 equal f_avgp[2]
variable pzz1 equal f_avgp[3]
variable pxy1 equal f_avgp[4]
variable pxz1 equal f_avgp[5]
variable pyz1 equal f_avgp[6]

# Compute elastic constant from pressure
# d1 = -[pxx1-pxx0]/[(]v_delta/v_len0] defined in input script
variable C1neg equal 32.3081073114384
variable C2neg equal 5.07087207767923
variable C3neg equal 33.3408744220537
variable C4neg equal -0.522635109648116
variable C5neg equal -26.0060894943903
variable C6neg equal 13.5990121414126

# Reset box and simulation parameters
clear
# box tilt large
read_restart equil.res
Reading restart file ...
  restart file = 2 Aug 2023, LAMMPS = 2 Aug 2023
  restoring atom style full from restart
  triclinic box = (0 0 0) to (15.7087 13.0868 17.5248) with tilt (-8.2042 -0.1458 -2.0056)
  pair style reaxff stores no restart info
  331 atoms
Finding 1-2 1-3 1-4 neighbors ...
     0 = max # of 1-2 neighbors
     0 = max # of 1-3 neighbors
     0 = max # of 1-4 neighbors
     1 = max # of special neighbors
  read_restart CPU = 0.004 seconds

# Positive deformation
variable delta equal 0.01*17.5248
variable deltaxy equal 0.01*xy
variable deltaxz equal 0.01*xz
variable deltayz equal 0.01*yz
fix deform_p all deform 100 xz delta 0.175248 remap x units box

# Run deformation MD
*****Positive-deform 5 starts.*****
include ff.mod.lmp
# Setup forcefield, system
# undefine any fix ave/* fix before using reset_timestep
if "$(is_defined(fix,avgp))" then "unfix avgp"
reset_timestep 0

# Assign the force field
pair_style reaxff NULL safezone 3.0 mincap 150
# pair_coeff * * CHONSSi.ff O Si
# pair_coeff * * CHOSiNa.ff O Si
# pair_coeff * * SiOCHN_2018.ff O Si
# pair_coeff * * PDMSDecomp.ff Si O
pair_coeff * * CHONSi.ff C H O Si
# pair_coeff * * CHOFe.ff O Si

# charge method for reaxff
fix myqeq all qeq/reaxff 1 0.0 10.0 1.0e-6 reaxff maxiter 400
# Setup neighbor style
neighbor        2 bin
neigh_modify    every 10 delay 0 check no

# Setup output
fix avgp all ave/time  10 10 100 c_thermo_press mode vector
thermo		100
thermo_style custom step temp pe press f_avgp[1] vol
thermo_modify norm no

# equilibration
fix 4 all nve
fix 5 all langevin 300 300 50 123457

# save trajectory
dump dump_pos5 all custom 100 dump/pos_deform5.lammpstrj id type x y z
variable dir1 equal 5
run 2000
Step          Temp          PotEng         Press        f_avgp[1]        Volume
0   289.28576     -36419.523     -15657.838      0              3602.6891
Averages over the last 11 of 21 rows, steps 1000 to 2000:
Temp PotEng Press f_avgp[1] Volume
301.226 -36467.4 -385.546 -889.332 3602.69
Loop time of 101.308 on 16 procs for 2000 steps with 331 atoms

unfix deform_p

# Obtain new stress tensor
variable pxx1 equal f_avgp[1]
variable pyy1 equal f_avgp[2]
variable pzz1 equal f_avgp[3]
variable pxy1 equal f_avgp[4]
variable pxz1 equal f_avgp[5]
variable pyz1 equal f_avgp[6]

# Compute elastic constant from pressure tensor
# d1 = -[pxx1-pxx0]/[(]v_delta/v_len0] defined in input script
variable C1pos equal -31.624250162142
variable C2pos equal -34.7013788981015
variable C3pos equal -42.7368525239236
variable C4pos equal 10.1593914699352
variable C5pos equal -0.87369667504235
variable C6pos equal -7.09595141133339

# Combine positive and negative
variable C15 equal 0.5*(32.3081073114384+-31.624250162142)
variable C25 equal 0.5*(5.07087207767923+-34.7013788981015)
variable C35 equal 0.5*(33.3408744220537+-42.7368525239236)
variable C45 equal 0.5*(-0.522635109648116+10.1593914699352)
variable C55 equal 0.5*(-26.0060894943903+-0.87369667504235)
variable C65 equal 0.5*(13.5990121414126+-7.09595141133339)

# Delete dir to make sure it is not reused
variable dir delete
# uxy Perturbation
variable dir equal 6
include displace.mod.lmp

# Find which reference length to use
variable len0 equal 13.0868

# Reset box and simulation parameters
clear
# box tilt large
read_restart equil.res
Reading restart file ...
  restart file = 2 Aug 2023, LAMMPS = 2 Aug 2023
  restoring atom style full from restart
  triclinic box = (0 0 0) to (15.7087 13.0868 17.5248) with tilt (-8.2042 -0.1458 -2.0056)
  pair style reaxff stores no restart info
  331 atoms
Finding 1-2 1-3 1-4 neighbors ...
     0 = max # of 1-2 neighbors
     0 = max # of 1-3 neighbors
     0 = max # of 1-4 neighbors
     1 = max # of special neighbors
  read_restart CPU = 0.003 seconds

# Negative deformation
variable delta equal -0.01*13.0868
variable deltaxy equal -0.01*xy
variable deltaxz equal -0.01*xz
variable deltayz equal -0.01*yz
fix deform_n all deform 100 xy delta -0.130868 remap x units box

# Run MD for Negative deformation
*****Negative-deform 6 starts.*****
include ff.mod.lmp
# Setup forcefield, system
# undefine any fix ave/* fix before using reset_timestep
if "$(is_defined(fix,avgp))" then "unfix avgp"
reset_timestep 0

# Assign the force field
pair_style reaxff NULL safezone 3.0 mincap 150
# pair_coeff * * CHONSSi.ff O Si
# pair_coeff * * CHOSiNa.ff O Si
# pair_coeff * * SiOCHN_2018.ff O Si
# pair_coeff * * PDMSDecomp.ff Si O
pair_coeff * * CHONSi.ff C H O Si
# pair_coeff * * CHOFe.ff O Si

# charge method for reaxff
fix myqeq all qeq/reaxff 1 0.0 10.0 1.0e-6 reaxff maxiter 400
# Setup neighbor style
neighbor        2 bin
neigh_modify    every 10 delay 0 check no

# Setup output
fix avgp all ave/time  10 10 100 c_thermo_press mode vector
thermo		100
thermo_style custom step temp pe press f_avgp[1] vol
thermo_modify norm no

# equilibration
fix 4 all nve
fix 5 all langevin 300 300 50 123457

# save trajectory
dump dump_neg6 all custom 100 dump/neg_deform6.lammpstrj id type x y z
variable dir1 equal 6
run 2000
Step          Temp          PotEng         Press        f_avgp[1]        Volume
0   289.28576     -36419.523     -15657.838      0              3602.6891
Averages over the last 11 of 21 rows, steps 1000 to 2000:
Temp PotEng Press f_avgp[1] Volume
299.258 -36467 -1130.06 -109.782 3602.69
Loop time of 100.572 on 16 procs for 2000 steps with 331 atoms

unfix deform_n

# Obtain new stress tensor Negative deformation
variable pxx1 equal f_avgp[1]
variable pyy1 equal f_avgp[2]
variable pzz1 equal f_avgp[3]
variable pxy1 equal f_avgp[4]
variable pxz1 equal f_avgp[5]
variable pyz1 equal f_avgp[6]

# Compute elastic constant from pressure
# d1 = -[pxx1-pxx0]/[(]v_delta/v_len0] defined in input script
variable C1neg equal 63.3660425214124
variable C2neg equal 42.3089261941477
variable C3neg equal 54.109888789159
variable C4neg equal 1.04770980404857
variable C5neg equal 2.98257957883098
variable C6neg equal 8.60635433428306

# Reset box and simulation parameters
clear
# box tilt large
read_restart equil.res
Reading restart file ...
  restart file = 2 Aug 2023, LAMMPS = 2 Aug 2023
  restoring atom style full from restart
  triclinic box = (0 0 0) to (15.7087 13.0868 17.5248) with tilt (-8.2042 -0.1458 -2.0056)
  pair style reaxff stores no restart info
  331 atoms
Finding 1-2 1-3 1-4 neighbors ...
     0 = max # of 1-2 neighbors
     0 = max # of 1-3 neighbors
     0 = max # of 1-4 neighbors
     1 = max # of special neighbors
  read_restart CPU = 0.003 seconds

# Positive deformation
variable delta equal 0.01*13.0868
variable deltaxy equal 0.01*xy
variable deltaxz equal 0.01*xz
variable deltayz equal 0.01*yz
fix deform_p all deform 100 xy delta 0.130868 remap x units box

# Run deformation MD
*****Positive-deform 6 starts.*****
include ff.mod.lmp
# Setup forcefield, system
# undefine any fix ave/* fix before using reset_timestep
if "$(is_defined(fix,avgp))" then "unfix avgp"
reset_timestep 0

# Assign the force field
pair_style reaxff NULL safezone 3.0 mincap 150
# pair_coeff * * CHONSSi.ff O Si
# pair_coeff * * CHOSiNa.ff O Si
# pair_coeff * * SiOCHN_2018.ff O Si
# pair_coeff * * PDMSDecomp.ff Si O
pair_coeff * * CHONSi.ff C H O Si
# pair_coeff * * CHOFe.ff O Si

# charge method for reaxff
fix myqeq all qeq/reaxff 1 0.0 10.0 1.0e-6 reaxff maxiter 400
# Setup neighbor style
neighbor        2 bin
neigh_modify    every 10 delay 0 check no

# Setup output
fix avgp all ave/time  10 10 100 c_thermo_press mode vector
thermo		100
thermo_style custom step temp pe press f_avgp[1] vol
thermo_modify norm no

# equilibration
fix 4 all nve
fix 5 all langevin 300 300 50 123457

# save trajectory
dump dump_pos6 all custom 100 dump/pos_deform6.lammpstrj id type x y z
variable dir1 equal 6
run 2000
Step          Temp          PotEng         Press        f_avgp[1]        Volume
0   289.28576     -36419.523     -15657.838      0              3602.6891
Averages over the last 11 of 21 rows, steps 1000 to 2000:
Temp PotEng Press f_avgp[1] Volume
299.884 -36466.7 -4665.14 -2258.61 3602.69
Loop time of 94.1831 on 16 procs for 2000 steps with 331 atoms

unfix deform_p

# Obtain new stress tensor
variable pxx1 equal f_avgp[1]
variable pyy1 equal f_avgp[2]
variable pzz1 equal f_avgp[3]
variable pxy1 equal f_avgp[4]
variable pxz1 equal f_avgp[5]
variable pyz1 equal f_avgp[6]

# Compute elastic constant from pressure tensor
# d1 = -[pxx1-pxx0]/[(]v_delta/v_len0] defined in input script
variable C1pos equal 6.72200257423018
variable C2pos equal -35.4687686407683
variable C3pos equal -17.1624659691306
variable C4pos equal 14.9067737417694
variable C5pos equal 10.8294869324882
variable C6pos equal -3.99573792959168

# Combine positive and negative
variable C16 equal 0.5*(63.3660425214124+6.72200257423018)
variable C26 equal 0.5*(42.3089261941477+-35.4687686407683)
variable C36 equal 0.5*(54.109888789159+-17.1624659691306)
variable C46 equal 0.5*(1.04770980404857+14.9067737417694)
variable C56 equal 0.5*(2.98257957883098+10.8294869324882)
variable C66 equal 0.5*(8.60635433428306+-3.99573792959168)

# Delete dir to make sure it is not reused
variable dir delete

# Calc and output
include calc.mod.lmp
variable C11all equal 63.5270122961889
variable C22all equal 36.5480472987299
variable C33all equal 54.7419572431893

variable C44all equal 18.8788911700847
variable C55all equal -13.4398930847163
variable C66all equal 2.30530820234569

variable C12all equal 0.5*(46.2941107071992+33.8889773490859)
variable C13all equal 0.5*(6.78905393835765+22.6230594141795)
variable C23all equal 0.5*(26.6441916959614+3.95128703663062)

variable C14all equal 0.5*(21.9968127512845+1.44058361386892)
variable C15all equal 0.5*(0.341928574648199+-0.360059879685305)
variable C16all equal 0.5*(35.0440225478213+-1.81840107740452)

variable C24all equal 0.5*(-9.94977301284666+0.768954125715685)
variable C25all equal 0.5*(-14.8152534102111+-4.44665703429989)
variable C26all equal 0.5*(3.4200787766897+-3.92148886186548)

variable C34all equal 0.5*(-18.9845438897853+6.43996022896516)
variable C35all equal 0.5*(-4.69798905093495+4.7251583258914)
variable C36all equal 0.5*(18.4737114100142+1.68646525283767)

variable C45all equal 0.5*(4.81837818014354+1.63302468129104)
variable C46all equal 0.5*(7.97724177290899+-1.24626784841326)
variable C56all equal 0.5*(6.90603325565959+3.25153036503961)

# print stiffness tensor to "C.log"
print """
"""  file C.log screen no
