LAMMPS (2 Aug 2023 - Update 2)
# Initialization
units           real
dimension       3
boundary        p p p
atom_style      full
timestep        0.5   # fs

variable       Tl equal 300.0   # low temperature
variable       Th equal 2200.0  # high temperature
variable       Td equal 50.0  # damping time
variable       P equal 1.0  # pressure
variable       Ph equal 1.0  # pressure
variable       Pd equal 10*50
variable       nrun equal 100  # number of steps
variable       nequil equal 50*100
variable       nheat equal 20*100
variable       ncool equal 100*100
variable       nthermo equal 100

# Read the initial sctructure
# box tilt large
variable structure string 333U-50C-1-vasp
read_data       333U-50C-1-vasp.data
Reading data file ...
  triclinic box = (0 0 0) to (17.1722 13.1279 17.5867) with tilt (-8.382 0.0305 0.3027)
  reading atoms ...
  362 atoms
Finding 1-2 1-3 1-4 neighbors ...
     0 = max # of 1-2 neighbors
     0 = max # of 1-3 neighbors
     0 = max # of 1-4 neighbors
     1 = max # of special neighbors

# Assign the force field
pair_style reaxff NULL safezone 3.0 mincap 150
# pair_coeff * * CHONSSi.ff O Si
# pair_coeff * * CHOSiNa.ff O Si
# pair_coeff * * SiOCHN_2018.ff C H O Si
# pair_coeff * * PDMSDecomp.ff Si O
pair_coeff * * CHONSi.ff C H O Si
# pair_coeff * * CHOFe.ff O Si

fix myqeq all qeq/reaxff 1 0.0 10.0 1.0e-6 reaxff maxiter 400
fix bondinfo all reaxff/bonds 100 bonds.reaxff

neighbor        2 bin
neigh_modify    every 10 delay 0 check no

# Print system info
thermo          100
thermo_style    custom step temp press density pe etotal

# Energy minimization
print "*****Minimization starts.*****"
*****Minimization starts.*****
fix min1 all nve
minimize 1.0e-6 1.0e-6 100 1000

CITE-CITE-CITE-CITE-CITE-CITE-CITE-CITE-CITE-CITE-CITE-CITE-CITE

Your simulation uses code contributions which should be cited:

- pair reaxff command: doi:10.1016/j.parco.2011.08.005

@Article{Aktulga12,
 author = {H. M. Aktulga and J. C. Fogarty and S. A. Pandit and A. Y. Grama},
 title = {Parallel Reactive Molecular Dynamics: {N}umerical Methods and Algorithmic Techniques},
 journal = {Parallel Computing},
 year =    2012,
 volume =  38,
 number =  {4--5},
 pages =   {245--259}
}

- fix qeq/reaxff command: doi:10.1016/j.parco.2011.08.005

@Article{Aktulga12,
 author = {H. M. Aktulga and J. C. Fogarty and S. A. Pandit and A. Y. Grama},
 title = {Parallel Reactive Molecular Dynamics: {N}umerical Methods and Algorithmic Techniques},
 journal = {Parallel Computing},
 year =    2012,
 volume =  38,
 pages =   {245--259}
}

CITE-CITE-CITE-CITE-CITE-CITE-CITE-CITE-CITE-CITE-CITE-CITE-CITE

Step          Temp          Press         Density         PotEng         TotEng
0   0              96270.669      1.6616584     -40664.228     -40664.228
Loop time of 6.7951 on 1 procs for 14 steps with 362 atoms

Minimization stats:
  Stopping criterion = energy tolerance
  Energy initial, next-to-last, final =
  Force two-norm initial, final = 1966.8479 257.20402
  Force max component initial, final = 271.21196 68.560653
  Final line search alpha, max atom move = 0.0011796569 0.080878045
  Iterations, force evaluations = 14 27

unfix min1
# Save the optimized structure
write_data 333U-50C-1-vasp_opt.data
System init for write_data ...

reset_timestep 0
# Save trajectory
#dump dump1 all custom 500 dump_opt.lammpstrj id type x y z q
dump dump1 all custom 100 dump_all.lammpstrj   id   type   x   y   z   q

# equilibration at low T
print "*****Equilibration starts.*****"
*****Equilibration starts.*****
velocity        all create 300 12345
fix             equil1 all npt temp 300 300 50 tri 1 1 500
# 1 ps : 1e3 fs / 0.5 fs = 2e3 steps
run             5000
Step          Temp          Press         Density         PotEng         TotEng
0   300            9354.0658      1.6616584     -42023.983     -41701.161
Averages over the last 26 of 51 rows, steps 2500 to 5000:
Temp Press Density PotEng TotEng
301.802 183.528 1.70247 -42315.5 -41990.7
Loop time of 2087.45 on 1 procs for 5000 steps with 362 atoms

# Heat to high T
print "*****Heat starts.*****"
*****Heat starts.*****
unfix           equil1
fix             heat1 all nvt temp 300 2200 50
# 1 ps : 1e3 fs / 0.5 fs = 2e3 steps
run             2000
Step          Temp          Press         Density         PotEng         TotEng
5000   288.09387      4888.9388      1.6912647     -42365.003     -42054.993
Averages over the last 11 of 21 rows, steps 6000 to 7000:
Temp Press Density PotEng TotEng
1694.41 15927 1.69126 -40596.3 -38773
Loop time of 863.188 on 1 procs for 2000 steps with 362 atoms

# middle equilibration at high T
print "*****Middle equilibration starts.*****"
*****Middle equilibration starts.*****
velocity        all create 300 12345
unfix             heat1
fix             equil2 all nvt temp 2200 2200 50
# 1 ps : 1e3 fs / 0.5 fs = 2e3 steps

# cool down to low T
print "*****Cool starts.*****"
*****Cool starts.*****
unfix           equil2
fix             cool1 all nvt temp 2200 300 50
# 1 ps : 1e3 fs / 0.5 fs = 2e3 steps
run             10000
Step          Temp          Press         Density         PotEng         TotEng
7000   300           -6357.7385      1.6912647     -39801.735     -39478.913
Averages over the last 51 of 101 rows, steps 12000 to 17000:
Temp Press Density PotEng TotEng
792.47 4662.55 1.69126 -41777.5 -40924.8
Loop time of 4357.66 on 1 procs for 10000 steps with 362 atoms

# final equilibration at low T
print "*****final equilibration starts.*****"
*****final equilibration starts.*****
unfix             cool1
fix             equil3 all npt temp 300 300 50 tri 1 1 500
# 1 ps : 1e3 fs / 0.5 fs = 2e3 steps
run             5000
Step          Temp          Press         Density         PotEng         TotEng
17000   335.49411      1858.0871      1.6912647     -42440.682     -42079.666
Averages over the last 26 of 51 rows, steps 19500 to 22000:
Temp Press Density PotEng TotEng
295.125 -1449.19 1.70255 -42463.9 -42146.3
Loop time of 1843.78 on 1 procs for 5000 steps with 362 atoms

write_data  333U-50C-1-vasp-an.data
System init for write_data ...
