LAMMPS (2 Aug 2023 - Update 2)
# Initialization
units           real
dimension       3
boundary        p p p
atom_style      full
timestep        0.5   # fs
neighbor        2 bin
neigh_modify    every 10 delay 0 check no

variable        T equal 300.0
variable        tdamp equal 50.0
variable        nevery equal 10
variable        nrepeat equal 5
variable        ndeform equal 10*5
variable        drate equal 0.0001
variable        nthermo equal 100
# variable        nequil equal 50*v_nthermo
variable        nrun equal 200*v_nthermo
variable        seed string 12346

# Read the initial sctructure
# box tilt large
read_data       nvt_equil.data
Reading data file ...
  triclinic box = (0 0 0) to (14.6913 12.723 15.9631) with tilt (-7.3456 0 0)
  reading atoms ...
  243 atoms
  reading velocities ...
  243 velocities
Finding 1-2 1-3 1-4 neighbors ...
     0 = max # of 1-2 neighbors
     0 = max # of 1-3 neighbors
     0 = max # of 1-4 neighbors
     1 = max # of special neighbors

# Assign the force field
pair_style reaxff NULL safezone 3.0 mincap 150
# pair_coeff * * CHONSSi.ff O Si
# pair_coeff * * CHOSiNa.ff O Si
# pair_coeff * * SiOCHN_2018.ff O Si
# pair_coeff * * PDMSDecomp.ff Si O
pair_coeff * * CHOFe.ff O Si

fix myqeq all qeq/reaxff 1 0.0 10.0 1.0e-6 reaxff maxiter 400

# Print system info
thermo          100
thermo_style    custom step temp press density pe etotal

# Save box length for calculation
# variable        lx0 equal lx
# variable        ly0 equal ly
variable         lz_temp equal lz
# variable        lx0 equal lx
# variable        ly0 equal ly
variable         lz0 equal 15.9631

# Change the shape of the box
print "*****Deformation starts.*****"
*****Deformation starts.*****
fix        reshape_nvt all nvt temp 300 300 50
fix         deform_z all deform 1 z erate 0.0001 remap x units box

# Calculate strain, stress
# variable        strainx equal "(lx - v_lx0)/v_lx0"
# variable        strainy equal "(ly - v_ly0)/v_ly0"
variable        strainz equal "(lz-v_lz0)/v_lz0"
# variable        stressx equal "-pxx/10000"
# variable        stressy equal "-pyy/10000"
variable        stressz equal "-pzz*1.1325e-4"
variable        nstep equal step

# Output stress, strain data to the "stress-strain.csv"
fix export_data1 all ave/time 10 5 50 v_strainz v_stressz     file stress-strain-avg.csv     title1 "step strain stress"     title2 ""

dump        dump2 all custom 100 main.lammpstrj   id   type   x   y   z   q
# Print system info
thermo          100
thermo_style    custom step temp press density pzz lz
run         20000

CITE-CITE-CITE-CITE-CITE-CITE-CITE-CITE-CITE-CITE-CITE-CITE-CITE

Your simulation uses code contributions which should be cited:

- pair reaxff command: doi:10.1016/j.parco.2011.08.005

@Article{Aktulga12,
 author = {H. M. Aktulga and J. C. Fogarty and S. A. Pandit and A. Y. Grama},
 title = {Parallel Reactive Molecular Dynamics: {N}umerical Methods and Algorithmic Techniques},
 journal = {Parallel Computing},
 year =    2012,
 volume =  38,
 number =  {4--5},
 pages =   {245--259}
}

- fix qeq/reaxff command: doi:10.1016/j.parco.2011.08.005

@Article{Aktulga12,
 author = {H. M. Aktulga and J. C. Fogarty and S. A. Pandit and A. Y. Grama},
 title = {Parallel Reactive Molecular Dynamics: {N}umerical Methods and Algorithmic Techniques},
 journal = {Parallel Computing},
 year =    2012,
 volume =  38,
 pages =   {245--259}
}

CITE-CITE-CITE-CITE-CITE-CITE-CITE-CITE-CITE-CITE-CITE-CITE-CITE

Step          Temp          Press         Density          Pzz             Lz
0   321.99762      10370.218      2.8878482      10749.373      15.9631
Averages over the last 101 of 201 rows, steps 10000 to 20000:
Temp Press Density Pzz Lz
382.148 -204806 1.66179 -438611 27.9354
Loop time of 391.908 on 2 procs for 20000 steps with 243 atoms

write_data final.data
System init for write_data ...

print "*****Done.*****"
*****Done.*****
