LAMMPS (2 Aug 2023 - Update 2)
# Initialization
units           real
dimension       3
boundary        p p p
atom_style      full
timestep        0.5   # fs

# Define MD parameters
variable nevery equal 10                  # sampling interval
variable nrepeat equal 10                 # number of samples
variable nfreq equal 10*10
variable nthermo equal 100
# 1 ps : 1e3 fs / 0.5 fs = 2e3 steps
variable nequil equal 50*100
variable nrun equal 50*100
variable temp equal 300.0                # temperature of initial sample
variable tdamp equal 50.0                 # time constant for thermostat
variable seed equal 123456                # seed for thermostat
variable ufac equal 1.01325e-4         # pressure unit conversion, from atm to Gpa
variable up equal 0.1                  # the deformation magnitude 0.01

variable FF string "CHONSi.ff C H O Si"   # force field args for pair_coeff
# pair_coeff * * CHONSSi.ff O Si
# pair_coeff * * CHOSiNa.ff O Si
# pair_coeff * * SiOCHN_2018.ff O Si
# pair_coeff * * PDMSDecomp.ff Si O
# pair_coeff * * CHONSi.ff C H O Si
# pair_coeff * * CHOFe.ff O Si
variable structure string 333-HD-100C-11-VASP

# Read the initial sctructure
# box tilt large
read_data       333-HD-100C-11-VASP.data
Reading data file ...
  triclinic box = (0 0 0) to (15.0372 13.535 17.6074) with tilt (-7.4931 -0.1585 0.0807)
  reading atoms ...
  366 atoms
Finding 1-2 1-3 1-4 neighbors ...
     0 = max # of 1-2 neighbors
     0 = max # of 1-3 neighbors
     0 = max # of 1-4 neighbors
     1 = max # of special neighbors

# Assign the force field
pair_style reaxff NULL safezone 3.0 mincap 150
pair_coeff * * CHONSi.ff C H O Si
# charge method for reaxff
fix myqeq all qeq/reaxff 1 0.0 10.0 1.0e-6 reaxff maxiter 400

# Energy minimization
print "*****Minimization starts.*****"
*****Minimization starts.*****
minimize 1.0e-6 1.0e-6 100 1000

CITE-CITE-CITE-CITE-CITE-CITE-CITE-CITE-CITE-CITE-CITE-CITE-CITE

Your simulation uses code contributions which should be cited:

- pair reaxff command: doi:10.1016/j.parco.2011.08.005

@Article{Aktulga12,
 author = {H. M. Aktulga and J. C. Fogarty and S. A. Pandit and A. Y. Grama},
 title = {Parallel Reactive Molecular Dynamics: {N}umerical Methods and Algorithmic Techniques},
 journal = {Parallel Computing},
 year =    2012,
 volume =  38,
 number =  {4--5},
 pages =   {245--259}
}

- fix qeq/reaxff command: doi:10.1016/j.parco.2011.08.005

@Article{Aktulga12,
 author = {H. M. Aktulga and J. C. Fogarty and S. A. Pandit and A. Y. Grama},
 title = {Parallel Reactive Molecular Dynamics: {N}umerical Methods and Algorithmic Techniques},
 journal = {Parallel Computing},
 year =    2012,
 volume =  38,
 pages =   {245--259}
}

CITE-CITE-CITE-CITE-CITE-CITE-CITE-CITE-CITE-CITE-CITE-CITE-CITE

Step          Temp          E_pair         E_mol          TotEng         Press
0   0             -43876.171      0             -43876.171      75874.465
Loop time of 3.27289 on 16 procs for 22 steps with 366 atoms

Minimization stats:
  Stopping criterion = energy tolerance
  Energy initial, next-to-last, final =
  Force two-norm initial, final = 945.09194 184.46932
  Force max component initial, final = 142.08591 79.596896
  Final line search alpha, max atom move = 0.001520452 0.12102326
  Iterations, force evaluations = 22 56

min_style cg
# Save the optimized structure
write_data 333-HD-100C-11-VASP_opt.data
System init for write_data ...
velocity        all create 300 123456 dist gaussian

# Equilibration
include ff.mod.lmp
# Setup forcefield, system
# undefine any fix ave/* fix before using reset_timestep
if "$(is_defined(fix,avgp))" then "unfix avgp"
if "$(is_defined(fix,avgl))" then "unfix avgl"
reset_timestep 0

# Assign the force field
pair_style reaxff NULL safezone 3.0 mincap 150
pair_coeff * * CHONSi.ff C H O Si

# charge method for reaxff
fix myqeq all qeq/reaxff 1 0.0 10.0 1.0e-6 reaxff maxiter 400
# Setup neighbor style
neighbor        2 bin
neigh_modify    every 10 delay 0 check no

# Setup output
thermo		100
thermo_style custom step temp pe press vol lx ly lz
# thermo_style custom step vol lx ly lz yz xz xy
thermo_modify norm no
# thermo_modify line multi

# Sample pressure (and length vector)
fix avgp all ave/time  10 10 100 c_thermo_press mode vector
# variable lx equal lx
# variable ly equal ly
# variable lz equal lz

# nvt
fix fnvt all nvt temp 300 300 50

if "$(is_defined(fix,avgp))" then "unfix avgp"
unfix avgp
if "$(is_defined(fix,avgl))" then "unfix avgl"
thermo_style custom step temp pe press density vol
run 5000
Step          Temp          PotEng         Press         Density         Volume
0   300           -44408.916      24161.796      1.9939932      3583.6077
Averages over the last 26 of 51 rows, steps 2500 to 5000:
Temp PotEng Press Density Volume
304.414 -44369.7 15030.7 1.99399 3583.61
Loop time of 307.685 on 16 procs for 5000 steps with 366 atoms

# Save the equilibrated structure
write_data 333-HD-100C-11-VASP_eq.data
System init for write_data ...

# use tmp to save initial length and tilt
variable tmp equal lx
variable lx0 equal 15.0372
variable tmp equal ly
variable ly0 equal 13.535
variable tmp equal lz
variable lz0 equal 17.6074

variable tmp equal yz
variable yz0 equal 0.0807
variable tmp equal xz
variable xz0 equal -0.1585
variable tmp equal xy
variable xy0 equal -7.4931

# Write restart
write_restart equil.res
System init for write_restart ...

# dir: direction
# uxx Perturbation
variable dir equal 1
include displace.mod.lmp
# # Find which reference length to use

# Find which length (epsilon) to calculate
variable len0 equal 15.0372
variable dlen equal lx-15.0372

# strain vector (epsilon)
variable eps equal v_dlen/v_len0

# stress vector (sigma)
variable sig1 equal -f_avgp[1]*0.000101325
variable sig2 equal -f_avgp[2]*0.000101325
variable sig3 equal -f_avgp[3]*0.000101325
variable sig4 equal -f_avgp[6]*0.000101325
variable sig5 equal -f_avgp[5]*0.000101325
variable sig6 equal -f_avgp[4]*0.000101325

# Reset box and simulation parameters
clear
# box tilt large
read_restart equil.res
Reading restart file ...
  restart file = 2 Aug 2023, LAMMPS = 2 Aug 2023
  restoring atom style full from restart
  triclinic box = (0 0 0) to (15.0372 13.535 17.6074) with tilt (-7.4931 -0.1585 0.0807)
  pair style reaxff stores no restart info
  366 atoms
Finding 1-2 1-3 1-4 neighbors ...
     0 = max # of 1-2 neighbors
     0 = max # of 1-3 neighbors
     0 = max # of 1-4 neighbors
     1 = max # of special neighbors
  read_restart CPU = 0.006 seconds

# Negative deformation
variable delta equal -0.1*15.0372
variable deltaxy equal -0.1*xy
variable deltaxz equal -0.1*xz
variable deltayz equal -0.1*yz
print "*****debug*****"
*****debug*****
xy = -7.4931000000000000938, deltaxy = 0.74931
xz = -0.158500000000000002, deltaxz = 0.01585
yz = 0.08069999999999999396, deltayz = -0.00807
print "*****"
*****

fix deform_n all deform 100 x delta 0 -1.50372 xy delta 0.74931 xz delta 0.01585 remap v units box flip no

# Run MD for Negative deformation
*****Negative-deform 1 starts.*****
include ff.mod.lmp
# Setup forcefield, system
# undefine any fix ave/* fix before using reset_timestep
if "$(is_defined(fix,avgp))" then "unfix avgp"
if "$(is_defined(fix,avgl))" then "unfix avgl"
reset_timestep 0

# Assign the force field
pair_style reaxff NULL safezone 3.0 mincap 150
pair_coeff * * CHONSi.ff C H O Si

# charge method for reaxff
fix myqeq all qeq/reaxff 1 0.0 10.0 1.0e-6 reaxff maxiter 400
# Setup neighbor style
neighbor        2 bin
neigh_modify    every 10 delay 0 check no

# Setup output
thermo		100
thermo_style custom step temp pe press vol lx ly lz
# thermo_style custom step vol lx ly lz yz xz xy
thermo_modify norm no
# thermo_modify line multi

# Sample pressure (and length vector)
fix avgp all ave/time  10 10 100 c_thermo_press mode vector
# variable lx equal lx
# variable ly equal ly
# variable lz equal lz

# nvt
fix fnvt all nvt temp 300 300 50
  fix style: nvt, fix ID: fnvt

# save trajectory
dump dump_neg1 all custom 100 dump/neg_deform1.lammpstrj id type q x y z
run 5000
All restart file global fix info was re-assigned
Step          Temp          PotEng         Press          Volume           Lx             Ly             Lz
0   308.50984     -44382.009      21155.696      3583.6077      15.0372        13.535         17.6074
Averages over the last 26 of 51 rows, steps 2500 to 5000:
Temp PotEng Press Volume Lx Ly Lz
305.374 -44246.1 60224.4 3314.84 13.9094 13.535 17.6074
Loop time of 332.511 on 16 procs for 5000 steps with 366 atoms

unfix deform_n
unfix data
undump dump_neg1

# Compute elastic constant from pressure
# d1 = -[pxx1-pxx0]/[(v_delta/v_len0] defined in input script

# Reset box and simulation parameters
clear
# box tilt large
read_restart equil.res
Reading restart file ...
  restart file = 2 Aug 2023, LAMMPS = 2 Aug 2023
  restoring atom style full from restart
  triclinic box = (0 0 0) to (15.0372 13.535 17.6074) with tilt (-7.4931 -0.1585 0.0807)
  pair style reaxff stores no restart info
  366 atoms
Finding 1-2 1-3 1-4 neighbors ...
     0 = max # of 1-2 neighbors
     0 = max # of 1-3 neighbors
     0 = max # of 1-4 neighbors
     1 = max # of special neighbors
  read_restart CPU = 0.004 seconds

# Positive deformation
variable delta equal 0.1*15.0372
variable deltaxy equal 0.1*xy
variable deltaxz equal 0.1*xz
variable deltayz equal 0.1*yz
fix deform_p all deform 100 x delta 0 1.50372 xy delta -0.74931 xz delta -0.01585 remap v units box

# Run deformation MD
*****Positive-deform 1 starts.*****
include ff.mod.lmp
# Setup forcefield, system
# undefine any fix ave/* fix before using reset_timestep
if "$(is_defined(fix,avgp))" then "unfix avgp"
if "$(is_defined(fix,avgl))" then "unfix avgl"
reset_timestep 0

# Assign the force field
pair_style reaxff NULL safezone 3.0 mincap 150
pair_coeff * * CHONSi.ff C H O Si

# charge method for reaxff
fix myqeq all qeq/reaxff 1 0.0 10.0 1.0e-6 reaxff maxiter 400
# Setup neighbor style
neighbor        2 bin
neigh_modify    every 10 delay 0 check no

# Setup output
thermo		100
thermo_style custom step temp pe press vol lx ly lz
# thermo_style custom step vol lx ly lz yz xz xy
thermo_modify norm no
# thermo_modify line multi

# Sample pressure (and length vector)
fix avgp all ave/time  10 10 100 c_thermo_press mode vector
# variable lx equal lx
# variable ly equal ly
# variable lz equal lz

# nvt
fix fnvt all nvt temp 300 300 50
  fix style: nvt, fix ID: fnvt

# save trajectory
dump dump_pos1 all custom 100 dump/pos_deform1.lammpstrj id type q x y z
run 5000
All restart file global fix info was re-assigned
Step          Temp          PotEng         Press          Volume           Lx             Ly             Lz
0   308.50984     -44382.009      21155.696      3583.6077      15.0372        13.535         17.6074
Averages over the last 26 of 51 rows, steps 2500 to 5000:
Temp PotEng Press Volume Lx Ly Lz
297.704 -44329.1 -20286.8 3852.38 16.165 13.535 17.6074
Loop time of 288.813 on 16 procs for 5000 steps with 366 atoms

unfix deform_p
unfix data
undump dump_pos1

# # Combine positive and negative

# Delete dir to make sure it is not reused
variable dir delete
# uyy Perturbation
variable dir equal 2
include displace.mod.lmp
# # Find which reference length to use

# Find which length (epsilon) to calculate
variable len0 equal 13.535
variable dlen equal ly-13.535

# strain vector (epsilon)
variable eps equal v_dlen/v_len0

# stress vector (sigma)
variable sig1 equal -f_avgp[1]*0.000101325
variable sig2 equal -f_avgp[2]*0.000101325
variable sig3 equal -f_avgp[3]*0.000101325
variable sig4 equal -f_avgp[6]*0.000101325
variable sig5 equal -f_avgp[5]*0.000101325
variable sig6 equal -f_avgp[4]*0.000101325

# Reset box and simulation parameters
clear
# box tilt large
read_restart equil.res
Reading restart file ...
  restart file = 2 Aug 2023, LAMMPS = 2 Aug 2023
  restoring atom style full from restart
  triclinic box = (0 0 0) to (15.0372 13.535 17.6074) with tilt (-7.4931 -0.1585 0.0807)
  pair style reaxff stores no restart info
  366 atoms
Finding 1-2 1-3 1-4 neighbors ...
     0 = max # of 1-2 neighbors
     0 = max # of 1-3 neighbors
     0 = max # of 1-4 neighbors
     1 = max # of special neighbors
  read_restart CPU = 0.004 seconds

# Negative deformation
variable delta equal -0.1*13.535
variable deltaxy equal -0.1*xy
variable deltaxz equal -0.1*xz
variable deltayz equal -0.1*yz
print "*****debug*****"
*****debug*****
xy = -7.4931000000000000938, deltaxy = 0.74931
xz = -0.158500000000000002, deltaxz = 0.01585
yz = 0.08069999999999999396, deltayz = -0.00807
print "*****"
*****

fix deform_n all deform 100 y delta 0 -1.3535 yz delta -0.00807 remap v units box flip no

# Run MD for Negative deformation
*****Negative-deform 2 starts.*****
include ff.mod.lmp
# Setup forcefield, system
# undefine any fix ave/* fix before using reset_timestep
if "$(is_defined(fix,avgp))" then "unfix avgp"
if "$(is_defined(fix,avgl))" then "unfix avgl"
reset_timestep 0

# Assign the force field
pair_style reaxff NULL safezone 3.0 mincap 150
pair_coeff * * CHONSi.ff C H O Si

# charge method for reaxff
fix myqeq all qeq/reaxff 1 0.0 10.0 1.0e-6 reaxff maxiter 400
# Setup neighbor style
neighbor        2 bin
neigh_modify    every 10 delay 0 check no

# Setup output
thermo		100
thermo_style custom step temp pe press vol lx ly lz
# thermo_style custom step vol lx ly lz yz xz xy
thermo_modify norm no
# thermo_modify line multi

# Sample pressure (and length vector)
fix avgp all ave/time  10 10 100 c_thermo_press mode vector
# variable lx equal lx
# variable ly equal ly
# variable lz equal lz

# nvt
fix fnvt all nvt temp 300 300 50
  fix style: nvt, fix ID: fnvt

# save trajectory
dump dump_neg2 all custom 100 dump/neg_deform2.lammpstrj id type q x y z
run 5000
All restart file global fix info was re-assigned
Step          Temp          PotEng         Press          Volume           Lx             Ly             Lz
0   308.50984     -44382.009      21155.696      3583.6077      15.0372        13.535         17.6074
Averages over the last 26 of 51 rows, steps 2500 to 5000:
Temp PotEng Press Volume Lx Ly Lz
300.55 -44284.2 50704 3314.84 15.0372 12.5199 17.6074
Loop time of 337.467 on 16 procs for 5000 steps with 366 atoms

unfix deform_n
unfix data
undump dump_neg2

# Compute elastic constant from pressure
# d1 = -[pxx1-pxx0]/[(v_delta/v_len0] defined in input script

# Reset box and simulation parameters
clear
# box tilt large
read_restart equil.res
Reading restart file ...
  restart file = 2 Aug 2023, LAMMPS = 2 Aug 2023
  restoring atom style full from restart
  triclinic box = (0 0 0) to (15.0372 13.535 17.6074) with tilt (-7.4931 -0.1585 0.0807)
  pair style reaxff stores no restart info
  366 atoms
Finding 1-2 1-3 1-4 neighbors ...
     0 = max # of 1-2 neighbors
     0 = max # of 1-3 neighbors
     0 = max # of 1-4 neighbors
     1 = max # of special neighbors
  read_restart CPU = 0.003 seconds

# Positive deformation
variable delta equal 0.1*13.535
variable deltaxy equal 0.1*xy
variable deltaxz equal 0.1*xz
variable deltayz equal 0.1*yz
fix deform_p all deform 100 y delta 0 1.3535 yz delta 0.00807 remap v units box

# Run deformation MD
*****Positive-deform 2 starts.*****
include ff.mod.lmp
# Setup forcefield, system
# undefine any fix ave/* fix before using reset_timestep
if "$(is_defined(fix,avgp))" then "unfix avgp"
if "$(is_defined(fix,avgl))" then "unfix avgl"
reset_timestep 0

# Assign the force field
pair_style reaxff NULL safezone 3.0 mincap 150
pair_coeff * * CHONSi.ff C H O Si

# charge method for reaxff
fix myqeq all qeq/reaxff 1 0.0 10.0 1.0e-6 reaxff maxiter 400
# Setup neighbor style
neighbor        2 bin
neigh_modify    every 10 delay 0 check no

# Setup output
thermo		100
thermo_style custom step temp pe press vol lx ly lz
# thermo_style custom step vol lx ly lz yz xz xy
thermo_modify norm no
# thermo_modify line multi

# Sample pressure (and length vector)
fix avgp all ave/time  10 10 100 c_thermo_press mode vector
# variable lx equal lx
# variable ly equal ly
# variable lz equal lz

# nvt
fix fnvt all nvt temp 300 300 50
  fix style: nvt, fix ID: fnvt

# save trajectory
dump dump_pos2 all custom 100 dump/pos_deform2.lammpstrj id type q x y z
run 5000
All restart file global fix info was re-assigned
Step          Temp          PotEng         Press          Volume           Lx             Ly             Lz
0   308.50984     -44382.009      21155.696      3583.6077      15.0372        13.535         17.6074
Averages over the last 26 of 51 rows, steps 2500 to 5000:
Temp PotEng Press Volume Lx Ly Lz
299.106 -44308.5 -16811.4 3852.38 15.0372 14.5501 17.6074
Loop time of 285.77 on 16 procs for 5000 steps with 366 atoms

unfix deform_p
unfix data
undump dump_pos2

# # Combine positive and negative

# Delete dir to make sure it is not reused
variable dir delete
# uzz Perturbation
variable dir equal 3
include displace.mod.lmp
# # Find which reference length to use

# Find which length (epsilon) to calculate
variable len0 equal 17.6074
variable dlen equal lz-17.6074

# strain vector (epsilon)
variable eps equal v_dlen/v_len0

# stress vector (sigma)
variable sig1 equal -f_avgp[1]*0.000101325
variable sig2 equal -f_avgp[2]*0.000101325
variable sig3 equal -f_avgp[3]*0.000101325
variable sig4 equal -f_avgp[6]*0.000101325
variable sig5 equal -f_avgp[5]*0.000101325
variable sig6 equal -f_avgp[4]*0.000101325

# Reset box and simulation parameters
clear
# box tilt large
read_restart equil.res
Reading restart file ...
  restart file = 2 Aug 2023, LAMMPS = 2 Aug 2023
  restoring atom style full from restart
  triclinic box = (0 0 0) to (15.0372 13.535 17.6074) with tilt (-7.4931 -0.1585 0.0807)
  pair style reaxff stores no restart info
  366 atoms
Finding 1-2 1-3 1-4 neighbors ...
     0 = max # of 1-2 neighbors
     0 = max # of 1-3 neighbors
     0 = max # of 1-4 neighbors
     1 = max # of special neighbors
  read_restart CPU = 0.003 seconds

# Negative deformation
variable delta equal -0.1*17.6074
variable deltaxy equal -0.1*xy
variable deltaxz equal -0.1*xz
variable deltayz equal -0.1*yz
print "*****debug*****"
*****debug*****
xy = -7.4931000000000000938, deltaxy = 0.74931
xz = -0.158500000000000002, deltaxz = 0.01585
yz = 0.08069999999999999396, deltayz = -0.00807
print "*****"
*****

fix deform_n all deform 100 z delta 0 -1.76074 remap v units box flip no

# Run MD for Negative deformation
*****Negative-deform 3 starts.*****
include ff.mod.lmp
# Setup forcefield, system
# undefine any fix ave/* fix before using reset_timestep
if "$(is_defined(fix,avgp))" then "unfix avgp"
if "$(is_defined(fix,avgl))" then "unfix avgl"
reset_timestep 0

# Assign the force field
pair_style reaxff NULL safezone 3.0 mincap 150
pair_coeff * * CHONSi.ff C H O Si

# charge method for reaxff
fix myqeq all qeq/reaxff 1 0.0 10.0 1.0e-6 reaxff maxiter 400
# Setup neighbor style
neighbor        2 bin
neigh_modify    every 10 delay 0 check no

# Setup output
thermo		100
thermo_style custom step temp pe press vol lx ly lz
# thermo_style custom step vol lx ly lz yz xz xy
thermo_modify norm no
# thermo_modify line multi

# Sample pressure (and length vector)
fix avgp all ave/time  10 10 100 c_thermo_press mode vector
# variable lx equal lx
# variable ly equal ly
# variable lz equal lz

# nvt
fix fnvt all nvt temp 300 300 50
  fix style: nvt, fix ID: fnvt

# save trajectory
dump dump_neg3 all custom 100 dump/neg_deform3.lammpstrj id type q x y z
run 5000
All restart file global fix info was re-assigned
Step          Temp          PotEng         Press          Volume           Lx             Ly             Lz
0   308.50984     -44382.009      21155.696      3583.6077      15.0372        13.535         17.6074
Averages over the last 26 of 51 rows, steps 2500 to 5000:
Temp PotEng Press Volume Lx Ly Lz
297.762 -44265.8 53339.7 3314.84 15.0372 13.535 16.2868
Loop time of 333.194 on 16 procs for 5000 steps with 366 atoms

unfix deform_n
unfix data
undump dump_neg3

# Compute elastic constant from pressure
# d1 = -[pxx1-pxx0]/[(v_delta/v_len0] defined in input script

# Reset box and simulation parameters
clear
# box tilt large
read_restart equil.res
Reading restart file ...
  restart file = 2 Aug 2023, LAMMPS = 2 Aug 2023
  restoring atom style full from restart
  triclinic box = (0 0 0) to (15.0372 13.535 17.6074) with tilt (-7.4931 -0.1585 0.0807)
  pair style reaxff stores no restart info
  366 atoms
Finding 1-2 1-3 1-4 neighbors ...
     0 = max # of 1-2 neighbors
     0 = max # of 1-3 neighbors
     0 = max # of 1-4 neighbors
     1 = max # of special neighbors
  read_restart CPU = 0.003 seconds

# Positive deformation
variable delta equal 0.1*17.6074
variable deltaxy equal 0.1*xy
variable deltaxz equal 0.1*xz
variable deltayz equal 0.1*yz
fix deform_p all deform 100 z delta 0 1.76074 remap v units box

# Run deformation MD
*****Positive-deform 3 starts.*****
include ff.mod.lmp
# Setup forcefield, system
# undefine any fix ave/* fix before using reset_timestep
if "$(is_defined(fix,avgp))" then "unfix avgp"
if "$(is_defined(fix,avgl))" then "unfix avgl"
reset_timestep 0

# Assign the force field
pair_style reaxff NULL safezone 3.0 mincap 150
pair_coeff * * CHONSi.ff C H O Si

# charge method for reaxff
fix myqeq all qeq/reaxff 1 0.0 10.0 1.0e-6 reaxff maxiter 400
# Setup neighbor style
neighbor        2 bin
neigh_modify    every 10 delay 0 check no

# Setup output
thermo		100
thermo_style custom step temp pe press vol lx ly lz
# thermo_style custom step vol lx ly lz yz xz xy
thermo_modify norm no
# thermo_modify line multi

# Sample pressure (and length vector)
fix avgp all ave/time  10 10 100 c_thermo_press mode vector
# variable lx equal lx
# variable ly equal ly
# variable lz equal lz

# nvt
fix fnvt all nvt temp 300 300 50
  fix style: nvt, fix ID: fnvt

# save trajectory
dump dump_pos3 all custom 100 dump/pos_deform3.lammpstrj id type q x y z
run 5000
All restart file global fix info was re-assigned
Step          Temp          PotEng         Press          Volume           Lx             Ly             Lz
0   308.50984     -44382.009      21155.696      3583.6077      15.0372        13.535         17.6074
Averages over the last 26 of 51 rows, steps 2500 to 5000:
Temp PotEng Press Volume Lx Ly Lz
301.274 -44299.1 -18669.3 3852.38 15.0372 13.535 18.928
Loop time of 287.456 on 16 procs for 5000 steps with 366 atoms

unfix deform_p
unfix data
undump dump_pos3

# # Combine positive and negative

# Delete dir to make sure it is not reused
variable dir delete
# uyz Perturbation
variable dir equal 4
include displace.mod.lmp
# # Find which reference length to use

# Find which length (epsilon) to calculate
variable len0 equal 15.0372
variable dlen equal 2*(yz-0.0807)

# strain vector (epsilon)
variable eps equal v_dlen/v_len0

# stress vector (sigma)
variable sig1 equal -f_avgp[1]*0.000101325
variable sig2 equal -f_avgp[2]*0.000101325
variable sig3 equal -f_avgp[3]*0.000101325
variable sig4 equal -f_avgp[6]*0.000101325
variable sig5 equal -f_avgp[5]*0.000101325
variable sig6 equal -f_avgp[4]*0.000101325

# Reset box and simulation parameters
clear
# box tilt large
read_restart equil.res
Reading restart file ...
  restart file = 2 Aug 2023, LAMMPS = 2 Aug 2023
  restoring atom style full from restart
  triclinic box = (0 0 0) to (15.0372 13.535 17.6074) with tilt (-7.4931 -0.1585 0.0807)
  pair style reaxff stores no restart info
  366 atoms
Finding 1-2 1-3 1-4 neighbors ...
     0 = max # of 1-2 neighbors
     0 = max # of 1-3 neighbors
     0 = max # of 1-4 neighbors
     1 = max # of special neighbors
  read_restart CPU = 0.003 seconds

# Negative deformation
variable delta equal -0.1*15.0372
variable deltaxy equal -0.1*xy
variable deltaxz equal -0.1*xz
variable deltayz equal -0.1*yz
print "*****debug*****"
*****debug*****
xy = -7.4931000000000000938, deltaxy = 0.74931
xz = -0.158500000000000002, deltaxz = 0.01585
yz = 0.08069999999999999396, deltayz = -0.00807
print "*****"
*****

fix deform_n all deform 100 yz delta -1.50372 remap v units box flip no

# Run MD for Negative deformation
*****Negative-deform 4 starts.*****
include ff.mod.lmp
# Setup forcefield, system
# undefine any fix ave/* fix before using reset_timestep
if "$(is_defined(fix,avgp))" then "unfix avgp"
if "$(is_defined(fix,avgl))" then "unfix avgl"
reset_timestep 0

# Assign the force field
pair_style reaxff NULL safezone 3.0 mincap 150
pair_coeff * * CHONSi.ff C H O Si

# charge method for reaxff
fix myqeq all qeq/reaxff 1 0.0 10.0 1.0e-6 reaxff maxiter 400
# Setup neighbor style
neighbor        2 bin
neigh_modify    every 10 delay 0 check no

# Setup output
thermo		100
thermo_style custom step temp pe press vol lx ly lz
# thermo_style custom step vol lx ly lz yz xz xy
thermo_modify norm no
# thermo_modify line multi

# Sample pressure (and length vector)
fix avgp all ave/time  10 10 100 c_thermo_press mode vector
# variable lx equal lx
# variable ly equal ly
# variable lz equal lz

# nvt
fix fnvt all nvt temp 300 300 50
  fix style: nvt, fix ID: fnvt

# save trajectory
dump dump_neg4 all custom 100 dump/neg_deform4.lammpstrj id type q x y z
run 5000
All restart file global fix info was re-assigned
Step          Temp          PotEng         Press          Volume           Lx             Ly             Lz
0   308.50984     -44382.009      21155.696      3583.6077      15.0372        13.535         17.6074
Averages over the last 26 of 51 rows, steps 2500 to 5000:
Temp PotEng Press Volume Lx Ly Lz
303.054 -44376.1 12172.6 3583.61 15.0372 13.535 17.6074
Loop time of 297.492 on 16 procs for 5000 steps with 366 atoms

unfix deform_n
unfix data
undump dump_neg4

# Compute elastic constant from pressure
# d1 = -[pxx1-pxx0]/[(v_delta/v_len0] defined in input script

# Reset box and simulation parameters
clear
# box tilt large
read_restart equil.res
Reading restart file ...
  restart file = 2 Aug 2023, LAMMPS = 2 Aug 2023
  restoring atom style full from restart
  triclinic box = (0 0 0) to (15.0372 13.535 17.6074) with tilt (-7.4931 -0.1585 0.0807)
  pair style reaxff stores no restart info
  366 atoms
Finding 1-2 1-3 1-4 neighbors ...
     0 = max # of 1-2 neighbors
     0 = max # of 1-3 neighbors
     0 = max # of 1-4 neighbors
     1 = max # of special neighbors
  read_restart CPU = 0.003 seconds

# Positive deformation
variable delta equal 0.1*15.0372
variable deltaxy equal 0.1*xy
variable deltaxz equal 0.1*xz
variable deltayz equal 0.1*yz
fix deform_p all deform 100 yz delta 1.50372 remap v units box

# Run deformation MD
*****Positive-deform 4 starts.*****
include ff.mod.lmp
# Setup forcefield, system
# undefine any fix ave/* fix before using reset_timestep
if "$(is_defined(fix,avgp))" then "unfix avgp"
if "$(is_defined(fix,avgl))" then "unfix avgl"
reset_timestep 0

# Assign the force field
pair_style reaxff NULL safezone 3.0 mincap 150
pair_coeff * * CHONSi.ff C H O Si

# charge method for reaxff
fix myqeq all qeq/reaxff 1 0.0 10.0 1.0e-6 reaxff maxiter 400
# Setup neighbor style
neighbor        2 bin
neigh_modify    every 10 delay 0 check no

# Setup output
thermo		100
thermo_style custom step temp pe press vol lx ly lz
# thermo_style custom step vol lx ly lz yz xz xy
thermo_modify norm no
# thermo_modify line multi

# Sample pressure (and length vector)
fix avgp all ave/time  10 10 100 c_thermo_press mode vector
# variable lx equal lx
# variable ly equal ly
# variable lz equal lz

# nvt
fix fnvt all nvt temp 300 300 50
  fix style: nvt, fix ID: fnvt

# save trajectory
dump dump_pos4 all custom 100 dump/pos_deform4.lammpstrj id type q x y z
run 5000
All restart file global fix info was re-assigned
Step          Temp          PotEng         Press          Volume           Lx             Ly             Lz
0   308.50984     -44382.009      21155.696      3583.6077      15.0372        13.535         17.6074
Averages over the last 26 of 51 rows, steps 2500 to 5000:
Temp PotEng Press Volume Lx Ly Lz
296.876 -44357.2 9600.07 3583.61 15.0372 13.535 17.6074
Loop time of 230.186 on 16 procs for 5000 steps with 366 atoms

unfix deform_p
unfix data
undump dump_pos4

# # Combine positive and negative

# Delete dir to make sure it is not reused
variable dir delete
# uxz Perturbation
variable dir equal 5
include displace.mod.lmp
# # Find which reference length to use

# Find which length (epsilon) to calculate
variable len0 equal 13.535
variable dlen equal 2*(xz--0.1585)

# strain vector (epsilon)
variable eps equal v_dlen/v_len0

# stress vector (sigma)
variable sig1 equal -f_avgp[1]*0.000101325
variable sig2 equal -f_avgp[2]*0.000101325
variable sig3 equal -f_avgp[3]*0.000101325
variable sig4 equal -f_avgp[6]*0.000101325
variable sig5 equal -f_avgp[5]*0.000101325
variable sig6 equal -f_avgp[4]*0.000101325

# Reset box and simulation parameters
clear
# box tilt large
read_restart equil.res
Reading restart file ...
  restart file = 2 Aug 2023, LAMMPS = 2 Aug 2023
  restoring atom style full from restart
  triclinic box = (0 0 0) to (15.0372 13.535 17.6074) with tilt (-7.4931 -0.1585 0.0807)
  pair style reaxff stores no restart info
  366 atoms
Finding 1-2 1-3 1-4 neighbors ...
     0 = max # of 1-2 neighbors
     0 = max # of 1-3 neighbors
     0 = max # of 1-4 neighbors
     1 = max # of special neighbors
  read_restart CPU = 0.002 seconds

# Negative deformation
variable delta equal -0.1*13.535
variable deltaxy equal -0.1*xy
variable deltaxz equal -0.1*xz
variable deltayz equal -0.1*yz
print "*****debug*****"
*****debug*****
xy = -7.4931000000000000938, deltaxy = 0.74931
xz = -0.158500000000000002, deltaxz = 0.01585
yz = 0.08069999999999999396, deltayz = -0.00807
print "*****"
*****

fix deform_n all deform 100 xz delta -1.3535 remap v units box flip no

# Run MD for Negative deformation
*****Negative-deform 5 starts.*****
include ff.mod.lmp
# Setup forcefield, system
# undefine any fix ave/* fix before using reset_timestep
if "$(is_defined(fix,avgp))" then "unfix avgp"
if "$(is_defined(fix,avgl))" then "unfix avgl"
reset_timestep 0

# Assign the force field
pair_style reaxff NULL safezone 3.0 mincap 150
pair_coeff * * CHONSi.ff C H O Si

# charge method for reaxff
fix myqeq all qeq/reaxff 1 0.0 10.0 1.0e-6 reaxff maxiter 400
# Setup neighbor style
neighbor        2 bin
neigh_modify    every 10 delay 0 check no

# Setup output
thermo		100
thermo_style custom step temp pe press vol lx ly lz
# thermo_style custom step vol lx ly lz yz xz xy
thermo_modify norm no
# thermo_modify line multi

# Sample pressure (and length vector)
fix avgp all ave/time  10 10 100 c_thermo_press mode vector
# variable lx equal lx
# variable ly equal ly
# variable lz equal lz

# nvt
fix fnvt all nvt temp 300 300 50
  fix style: nvt, fix ID: fnvt

# save trajectory
dump dump_neg5 all custom 100 dump/neg_deform5.lammpstrj id type q x y z
run 5000
All restart file global fix info was re-assigned
Step          Temp          PotEng         Press          Volume           Lx             Ly             Lz
0   308.50984     -44382.009      21155.696      3583.6077      15.0372        13.535         17.6074
Averages over the last 26 of 51 rows, steps 2500 to 5000:
Temp PotEng Press Volume Lx Ly Lz
297.572 -44370.2 9449.29 3583.61 15.0372 13.535 17.6074
Loop time of 178.905 on 16 procs for 5000 steps with 366 atoms

unfix deform_n
unfix data
undump dump_neg5

# Compute elastic constant from pressure
# d1 = -[pxx1-pxx0]/[(v_delta/v_len0] defined in input script

# Reset box and simulation parameters
clear
# box tilt large
read_restart equil.res
Reading restart file ...
  restart file = 2 Aug 2023, LAMMPS = 2 Aug 2023
  restoring atom style full from restart
  triclinic box = (0 0 0) to (15.0372 13.535 17.6074) with tilt (-7.4931 -0.1585 0.0807)
  pair style reaxff stores no restart info
  366 atoms
Finding 1-2 1-3 1-4 neighbors ...
     0 = max # of 1-2 neighbors
     0 = max # of 1-3 neighbors
     0 = max # of 1-4 neighbors
     1 = max # of special neighbors
  read_restart CPU = 0.002 seconds

# Positive deformation
variable delta equal 0.1*13.535
variable deltaxy equal 0.1*xy
variable deltaxz equal 0.1*xz
variable deltayz equal 0.1*yz
fix deform_p all deform 100 xz delta 1.3535 remap v units box

# Run deformation MD
*****Positive-deform 5 starts.*****
include ff.mod.lmp
# Setup forcefield, system
# undefine any fix ave/* fix before using reset_timestep
if "$(is_defined(fix,avgp))" then "unfix avgp"
if "$(is_defined(fix,avgl))" then "unfix avgl"
reset_timestep 0

# Assign the force field
pair_style reaxff NULL safezone 3.0 mincap 150
pair_coeff * * CHONSi.ff C H O Si

# charge method for reaxff
fix myqeq all qeq/reaxff 1 0.0 10.0 1.0e-6 reaxff maxiter 400
# Setup neighbor style
neighbor        2 bin
neigh_modify    every 10 delay 0 check no

# Setup output
thermo		100
thermo_style custom step temp pe press vol lx ly lz
# thermo_style custom step vol lx ly lz yz xz xy
thermo_modify norm no
# thermo_modify line multi

# Sample pressure (and length vector)
fix avgp all ave/time  10 10 100 c_thermo_press mode vector
# variable lx equal lx
# variable ly equal ly
# variable lz equal lz

# nvt
fix fnvt all nvt temp 300 300 50
  fix style: nvt, fix ID: fnvt

# save trajectory
dump dump_pos5 all custom 100 dump/pos_deform5.lammpstrj id type q x y z
run 5000
All restart file global fix info was re-assigned
Step          Temp          PotEng         Press          Volume           Lx             Ly             Lz
0   308.50984     -44382.009      21155.696      3583.6077      15.0372        13.535         17.6074
Averages over the last 26 of 51 rows, steps 2500 to 5000:
Temp PotEng Press Volume Lx Ly Lz
302.414 -44368 14165.9 3583.61 15.0372 13.535 17.6074
Loop time of 177.864 on 16 procs for 5000 steps with 366 atoms

unfix deform_p
unfix data
undump dump_pos5

# # Combine positive and negative

# Delete dir to make sure it is not reused
variable dir delete
# uxy Perturbation
variable dir equal 6
include displace.mod.lmp
# # Find which reference length to use

# Find which length (epsilon) to calculate
variable len0 equal 17.6074
variable dlen equal 2*(xy--7.4931)

# strain vector (epsilon)
variable eps equal v_dlen/v_len0

# stress vector (sigma)
variable sig1 equal -f_avgp[1]*0.000101325
variable sig2 equal -f_avgp[2]*0.000101325
variable sig3 equal -f_avgp[3]*0.000101325
variable sig4 equal -f_avgp[6]*0.000101325
variable sig5 equal -f_avgp[5]*0.000101325
variable sig6 equal -f_avgp[4]*0.000101325

# Reset box and simulation parameters
clear
# box tilt large
read_restart equil.res
Reading restart file ...
  restart file = 2 Aug 2023, LAMMPS = 2 Aug 2023
  restoring atom style full from restart
  triclinic box = (0 0 0) to (15.0372 13.535 17.6074) with tilt (-7.4931 -0.1585 0.0807)
  pair style reaxff stores no restart info
  366 atoms
Finding 1-2 1-3 1-4 neighbors ...
     0 = max # of 1-2 neighbors
     0 = max # of 1-3 neighbors
     0 = max # of 1-4 neighbors
     1 = max # of special neighbors
  read_restart CPU = 0.002 seconds

# Negative deformation
variable delta equal -0.1*17.6074
variable deltaxy equal -0.1*xy
variable deltaxz equal -0.1*xz
variable deltayz equal -0.1*yz
print "*****debug*****"
*****debug*****
xy = -7.4931000000000000938, deltaxy = 0.74931
xz = -0.158500000000000002, deltaxz = 0.01585
yz = 0.08069999999999999396, deltayz = -0.00807
print "*****"
*****

fix deform_n all deform 100 xy delta -1.76074 remap v units box flip no

# Run MD for Negative deformation
*****Negative-deform 6 starts.*****
include ff.mod.lmp
# Setup forcefield, system
# undefine any fix ave/* fix before using reset_timestep
if "$(is_defined(fix,avgp))" then "unfix avgp"
if "$(is_defined(fix,avgl))" then "unfix avgl"
reset_timestep 0

# Assign the force field
pair_style reaxff NULL safezone 3.0 mincap 150
pair_coeff * * CHONSi.ff C H O Si

# charge method for reaxff
fix myqeq all qeq/reaxff 1 0.0 10.0 1.0e-6 reaxff maxiter 400
# Setup neighbor style
neighbor        2 bin
neigh_modify    every 10 delay 0 check no

# Setup output
thermo		100
thermo_style custom step temp pe press vol lx ly lz
# thermo_style custom step vol lx ly lz yz xz xy
thermo_modify norm no
# thermo_modify line multi

# Sample pressure (and length vector)
fix avgp all ave/time  10 10 100 c_thermo_press mode vector
# variable lx equal lx
# variable ly equal ly
# variable lz equal lz

# nvt
fix fnvt all nvt temp 300 300 50
  fix style: nvt, fix ID: fnvt

# save trajectory
dump dump_neg6 all custom 100 dump/neg_deform6.lammpstrj id type q x y z
run 5000
All restart file global fix info was re-assigned
Step          Temp          PotEng         Press          Volume           Lx             Ly             Lz
0   308.50984     -44382.009      21155.696      3583.6077      15.0372        13.535         17.6074
Averages over the last 26 of 51 rows, steps 2500 to 5000:
Temp PotEng Press Volume Lx Ly Lz
296.121 -44350.1 6937.38 3583.61 15.0372 13.535 17.6074
Loop time of 176.718 on 16 procs for 5000 steps with 366 atoms

unfix deform_n
unfix data
undump dump_neg6

# Compute elastic constant from pressure
# d1 = -[pxx1-pxx0]/[(v_delta/v_len0] defined in input script

# Reset box and simulation parameters
clear
# box tilt large
read_restart equil.res
Reading restart file ...
  restart file = 2 Aug 2023, LAMMPS = 2 Aug 2023
  restoring atom style full from restart
  triclinic box = (0 0 0) to (15.0372 13.535 17.6074) with tilt (-7.4931 -0.1585 0.0807)
  pair style reaxff stores no restart info
  366 atoms
Finding 1-2 1-3 1-4 neighbors ...
     0 = max # of 1-2 neighbors
     0 = max # of 1-3 neighbors
     0 = max # of 1-4 neighbors
     1 = max # of special neighbors
  read_restart CPU = 0.002 seconds

# Positive deformation
variable delta equal 0.1*17.6074
variable deltaxy equal 0.1*xy
variable deltaxz equal 0.1*xz
variable deltayz equal 0.1*yz
fix deform_p all deform 100 xy delta 1.76074 remap v units box

# Run deformation MD
*****Positive-deform 6 starts.*****
include ff.mod.lmp
# Setup forcefield, system
# undefine any fix ave/* fix before using reset_timestep
if "$(is_defined(fix,avgp))" then "unfix avgp"
if "$(is_defined(fix,avgl))" then "unfix avgl"
reset_timestep 0

# Assign the force field
pair_style reaxff NULL safezone 3.0 mincap 150
pair_coeff * * CHONSi.ff C H O Si

# charge method for reaxff
fix myqeq all qeq/reaxff 1 0.0 10.0 1.0e-6 reaxff maxiter 400
# Setup neighbor style
neighbor        2 bin
neigh_modify    every 10 delay 0 check no

# Setup output
thermo		100
thermo_style custom step temp pe press vol lx ly lz
# thermo_style custom step vol lx ly lz yz xz xy
thermo_modify norm no
# thermo_modify line multi

# Sample pressure (and length vector)
fix avgp all ave/time  10 10 100 c_thermo_press mode vector
# variable lx equal lx
# variable ly equal ly
# variable lz equal lz

# nvt
fix fnvt all nvt temp 300 300 50
  fix style: nvt, fix ID: fnvt

# save trajectory
dump dump_pos6 all custom 100 dump/pos_deform6.lammpstrj id type q x y z
run 5000
All restart file global fix info was re-assigned
Step          Temp          PotEng         Press          Volume           Lx             Ly             Lz
0   308.50984     -44382.009      21155.696      3583.6077      15.0372        13.535         17.6074
Averages over the last 26 of 51 rows, steps 2500 to 5000:
Temp PotEng Press Volume Lx Ly Lz
295.478 -44339.1 8698.32 3583.61 15.0372 13.535 17.6074
Loop time of 157.979 on 16 procs for 5000 steps with 366 atoms

unfix deform_p
unfix data
undump dump_pos6

# # Combine positive and negative

# Delete dir to make sure it is not reused
variable dir delete

# Calc and output
# include calc.mod.lmp
