LAMMPS (2 Aug 2023 - Update 2)
# Initialization
units           real
dimension       3
boundary        p p p
# boundary        s s s
atom_style      full
timestep        0.5   # fs

# Define MD parameters
variable nevery equal 10                  # sampling interval
variable nrepeat equal 10                 # number of samples
variable nfreq equal 10*10
variable nthermo equal 100
# 1 ps : 1e3 fs / 0.5 fs = 2e3 steps
variable nequil equal 50*100
variable nrun equal 50*100
variable temp equal 300.0                # temperature of initial sample
variable tdamp equal 50.0                 # time constant for thermostat
variable seed equal 123456                # seed for thermostat
variable ufac equal 1.01325e-4         # pressure unit conversion, from atm to Gpa
variable up equal 0.01                  # the deformation magnitude 0.1
variable FF string "SiOCHN_2018.ff C H O Si"          # force field args for pair_coeff
# pair_coeff * * CHONSSi.ff C H O Si
# pair_coeff * * CHOSiNa.ff C H O Si
# pair_coeff * * SiOCHN_2018.ff C H O Si
# pair_coeff * * PDMSDecomp.ff C H O Si
# pair_coeff * * CHONSi.ff C H O Si
# pair_coeff * * CHOFe.ff O Si

# Read the initial sctructure
# box tilt large
variable structure string 333U-50C-9_eq

read_data       333U-50C-9_eq.data
Reading data file ...
  triclinic box = (0 0 0) to (16.6078 13.4502 17.3502) with tilt (-9.4505 -1.0717 0.0034)
  reading atoms ...
  386 atoms
  reading velocities ...
  386 velocities
Finding 1-2 1-3 1-4 neighbors ...
     0 = max # of 1-2 neighbors
     0 = max # of 1-3 neighbors
     0 = max # of 1-4 neighbors
     1 = max # of special neighbors

# Assign the force field
pair_style reaxff NULL safezone 3.0 mincap 150
pair_coeff * * SiOCHN_2018.ff C H O Si
# charge method for reaxff
fix myqeq all qeq/reaxff 1 0.0 10.0 1.0e-6 reaxff maxiter 400

# # Energy minimization
# print "*****Minimization starts.*****"
# minimize 1.0e-6 1.0e-6 100 1000
# min_style cg
# # Save the optimized structure

# # Equilibration
# include ff.mod.lmp
# if "$(is_defined(fix,avgp))" then "unfix avgp"
# if "$(is_defined(fix,avgl))" then "unfix avgl"
# thermo_style custom step temp pe press density vol
# # Save the equilibrated structure

# use tmp to save initial length and tilt
variable tmp equal lx
variable lx0 equal 16.6078
variable tmp equal ly
variable ly0 equal 13.4502
variable tmp equal lz
variable lz0 equal 17.3502

variable tmp equal yz
variable yz0 equal 0.0034
variable tmp equal xz
variable xz0 equal -1.0717
variable tmp equal xy
variable xy0 equal -9.4505

# Write restart
write_restart equil.res
System init for write_restart ...

# dir: direction
# uxx Perturbation
variable dir equal 1
include displace.mod.lmp
# Find which length (epsilon) to calculate
variable len0 equal 16.6078
variable dlen equal lx-16.6078

# strain vector (epsilon)
variable eps equal v_dlen/v_len0

# stress vector (sigma)
variable sig1 equal -f_avgp[1]*0.000101325
variable sig2 equal -f_avgp[2]*0.000101325
variable sig3 equal -f_avgp[3]*0.000101325
variable sig4 equal -f_avgp[6]*0.000101325
variable sig5 equal -f_avgp[5]*0.000101325
variable sig6 equal -f_avgp[4]*0.000101325

# Reset box and simulation parameters
clear
# box tilt large
read_restart equil.res
Reading restart file ...
  restart file = 2 Aug 2023, LAMMPS = 2 Aug 2023
  restoring atom style full from restart
  triclinic box = (0 0 0) to (16.6078 13.4502 17.3502) with tilt (-9.4505 -1.0717 0.0034)
  pair style reaxff stores no restart info
  386 atoms
Finding 1-2 1-3 1-4 neighbors ...
     0 = max # of 1-2 neighbors
     0 = max # of 1-3 neighbors
     0 = max # of 1-4 neighbors
     1 = max # of special neighbors
  read_restart CPU = 0.003 seconds

# Negative deformation
variable delta equal -0.01*16.6078
variable deltaxy equal -0.01*xy
variable deltaxz equal -0.01*xz
variable deltayz equal -0.01*yz
print "*****debug*****"
*****debug*****
xy = -9.4504999999999999005, deltaxy = 0.094505
xz = -1.071700000000000097, deltaxz = 0.010717
yz = 0.0033999999999999998106, deltayz = -3.4e-05
print "*****"
*****

fix deform_n all deform 100 x delta 0 -0.166078 xy delta 0.094505 xz delta 0.010717 remap v units box flip no

# Run MD for Negative deformation
*****Negative-deform 1 starts.*****
include ff.mod.lmp
# Setup forcefield, system
# undefine any fix ave/* fix before using reset_timestep
if "$(is_defined(fix,avgp))" then "unfix avgp"
if "$(is_defined(fix,avgl))" then "unfix avgl"
reset_timestep 0

# Assign the force field
pair_style reaxff NULL safezone 3.0 mincap 150
pair_coeff * * SiOCHN_2018.ff C H O Si

# charge method for reaxff
fix myqeq all qeq/reaxff 1 0.0 10.0 1.0e-6 reaxff maxiter 400
# Setup neighbor style
neighbor        2 bin
neigh_modify    every 10 delay 0 check yes

# Setup output
thermo		100
thermo_style custom step temp pe press vol
# thermo_style custom step vol lx ly lz yz xz xy
thermo_modify norm no
# thermo_modify line multi

# Sample pressure (and length vector)
fix avgp all ave/time  10 10 100 c_thermo_press mode vector
# variable lx equal lx
# variable ly equal ly
# variable lz equal lz

# nvt
fix fnvt all nvt temp 300 300 50

# save trajectory
dump dump_neg1 all custom/gz 100 dump/neg_deform1.lammpstrj.gz id type q x y z
run 5000

CITE-CITE-CITE-CITE-CITE-CITE-CITE-CITE-CITE-CITE-CITE-CITE-CITE

Your simulation uses code contributions which should be cited:

- pair reaxff command: doi:10.1016/j.parco.2011.08.005

@Article{Aktulga12,
 author = {H. M. Aktulga and J. C. Fogarty and S. A. Pandit and A. Y. Grama},
 title = {Parallel Reactive Molecular Dynamics: {N}umerical Methods and Algorithmic Techniques},
 journal = {Parallel Computing},
 year =    2012,
 volume =  38,
 number =  {4--5},
 pages =   {245--259}
}

- fix qeq/reaxff command: doi:10.1016/j.parco.2011.08.005

@Article{Aktulga12,
 author = {H. M. Aktulga and J. C. Fogarty and S. A. Pandit and A. Y. Grama},
 title = {Parallel Reactive Molecular Dynamics: {N}umerical Methods and Algorithmic Techniques},
 journal = {Parallel Computing},
 year =    2012,
 volume =  38,
 pages =   {245--259}
}

CITE-CITE-CITE-CITE-CITE-CITE-CITE-CITE-CITE-CITE-CITE-CITE-CITE

Step          Temp          PotEng         Press          Volume
0   299.62481     -39709.007      23288.44       3875.657
Averages over the last 26 of 51 rows, steps 2500 to 5000:
Temp PotEng Press Volume
298.622 -39706.3 10233.8 3846.59
Loop time of 154.519 on 16 procs for 5000 steps with 386 atoms

unfix deform_n
unfix data
undump dump_neg1

# Reset box and simulation parameters
clear
# box tilt large
read_restart equil.res
Reading restart file ...
  restart file = 2 Aug 2023, LAMMPS = 2 Aug 2023
  restoring atom style full from restart
  triclinic box = (0 0 0) to (16.6078 13.4502 17.3502) with tilt (-9.4505 -1.0717 0.0034)
  pair style reaxff stores no restart info
  386 atoms
Finding 1-2 1-3 1-4 neighbors ...
     0 = max # of 1-2 neighbors
     0 = max # of 1-3 neighbors
     0 = max # of 1-4 neighbors
     1 = max # of special neighbors
  read_restart CPU = 0.002 seconds

# Positive deformation
variable delta equal 0.01*16.6078
variable deltaxy equal 0.01*xy
variable deltaxz equal 0.01*xz
variable deltayz equal 0.01*yz
fix deform_p all deform 100 x delta 0 0.166078 xy delta -0.094505 xz delta -0.010717 remap v units box

# Run deformation MD
*****Positive-deform 1 starts.*****
include ff.mod.lmp
# Setup forcefield, system
# undefine any fix ave/* fix before using reset_timestep
if "$(is_defined(fix,avgp))" then "unfix avgp"
if "$(is_defined(fix,avgl))" then "unfix avgl"
reset_timestep 0

# Assign the force field
pair_style reaxff NULL safezone 3.0 mincap 150
pair_coeff * * SiOCHN_2018.ff C H O Si

# charge method for reaxff
fix myqeq all qeq/reaxff 1 0.0 10.0 1.0e-6 reaxff maxiter 400
# Setup neighbor style
neighbor        2 bin
neigh_modify    every 10 delay 0 check yes

# Setup output
thermo		100
thermo_style custom step temp pe press vol
# thermo_style custom step vol lx ly lz yz xz xy
thermo_modify norm no
# thermo_modify line multi

# Sample pressure (and length vector)
fix avgp all ave/time  10 10 100 c_thermo_press mode vector
# variable lx equal lx
# variable ly equal ly
# variable lz equal lz

# nvt
fix fnvt all nvt temp 300 300 50

# # compute MSD and RDF
# compute msd1 all msd
# C-C C-Si Si-O C-H Si-Si
# compute rdf1 all rdf 100 1 1 1 4 3 4 1 2 4 4 cutoff 5.0

# save trajectory
dump dump_pos1 all custom/gz 100 dump/pos_deform1.lammpstrj.gz id type q x y z
run 5000
Step          Temp          PotEng         Press          Volume
0   299.62481     -39709.007      23288.44       3875.657
Averages over the last 26 of 51 rows, steps 2500 to 5000:
Temp PotEng Press Volume
302.281 -39708.5 6547.56 3904.72
Loop time of 139.312 on 16 procs for 5000 steps with 386 atoms

unfix deform_p
unfix data
undump dump_pos1

# Delete dir to make sure it is not reused
variable dir delete
# uyy Perturbation
variable dir equal 2
include displace.mod.lmp
# Find which length (epsilon) to calculate
variable len0 equal 13.4502
variable dlen equal ly-13.4502

# strain vector (epsilon)
variable eps equal v_dlen/v_len0

# stress vector (sigma)
variable sig1 equal -f_avgp[1]*0.000101325
variable sig2 equal -f_avgp[2]*0.000101325
variable sig3 equal -f_avgp[3]*0.000101325
variable sig4 equal -f_avgp[6]*0.000101325
variable sig5 equal -f_avgp[5]*0.000101325
variable sig6 equal -f_avgp[4]*0.000101325

# Reset box and simulation parameters
clear
# box tilt large
read_restart equil.res
Reading restart file ...
  restart file = 2 Aug 2023, LAMMPS = 2 Aug 2023
  restoring atom style full from restart
  triclinic box = (0 0 0) to (16.6078 13.4502 17.3502) with tilt (-9.4505 -1.0717 0.0034)
  pair style reaxff stores no restart info
  386 atoms
Finding 1-2 1-3 1-4 neighbors ...
     0 = max # of 1-2 neighbors
     0 = max # of 1-3 neighbors
     0 = max # of 1-4 neighbors
     1 = max # of special neighbors
  read_restart CPU = 0.002 seconds

# Negative deformation
variable delta equal -0.01*13.4502
variable deltaxy equal -0.01*xy
variable deltaxz equal -0.01*xz
variable deltayz equal -0.01*yz
print "*****debug*****"
*****debug*****
xy = -9.4504999999999999005, deltaxy = 0.094505
xz = -1.071700000000000097, deltaxz = 0.010717
yz = 0.0033999999999999998106, deltayz = -3.4e-05
print "*****"
*****

fix deform_n all deform 100 y delta 0 -0.134502 yz delta -3.4e-05 remap v units box flip no

# Run MD for Negative deformation
*****Negative-deform 2 starts.*****
include ff.mod.lmp
# Setup forcefield, system
# undefine any fix ave/* fix before using reset_timestep
if "$(is_defined(fix,avgp))" then "unfix avgp"
if "$(is_defined(fix,avgl))" then "unfix avgl"
reset_timestep 0

# Assign the force field
pair_style reaxff NULL safezone 3.0 mincap 150
pair_coeff * * SiOCHN_2018.ff C H O Si

# charge method for reaxff
fix myqeq all qeq/reaxff 1 0.0 10.0 1.0e-6 reaxff maxiter 400
# Setup neighbor style
neighbor        2 bin
neigh_modify    every 10 delay 0 check yes

# Setup output
thermo		100
thermo_style custom step temp pe press vol
# thermo_style custom step vol lx ly lz yz xz xy
thermo_modify norm no
# thermo_modify line multi

# Sample pressure (and length vector)
fix avgp all ave/time  10 10 100 c_thermo_press mode vector
# variable lx equal lx
# variable ly equal ly
# variable lz equal lz

# nvt
fix fnvt all nvt temp 300 300 50

# save trajectory
dump dump_neg2 all custom/gz 100 dump/neg_deform2.lammpstrj.gz id type q x y z
run 5000
Step          Temp          PotEng         Press          Volume
0   299.62481     -39709.007      23288.44       3875.657
Averages over the last 26 of 51 rows, steps 2500 to 5000:
Temp PotEng Press Volume
298.566 -39697.2 12308.8 3846.59
Loop time of 152.255 on 16 procs for 5000 steps with 386 atoms

unfix deform_n
unfix data
undump dump_neg2

# Reset box and simulation parameters
clear
# box tilt large
read_restart equil.res
Reading restart file ...
  restart file = 2 Aug 2023, LAMMPS = 2 Aug 2023
  restoring atom style full from restart
  triclinic box = (0 0 0) to (16.6078 13.4502 17.3502) with tilt (-9.4505 -1.0717 0.0034)
  pair style reaxff stores no restart info
  386 atoms
Finding 1-2 1-3 1-4 neighbors ...
     0 = max # of 1-2 neighbors
     0 = max # of 1-3 neighbors
     0 = max # of 1-4 neighbors
     1 = max # of special neighbors
  read_restart CPU = 0.002 seconds

# Positive deformation
variable delta equal 0.01*13.4502
variable deltaxy equal 0.01*xy
variable deltaxz equal 0.01*xz
variable deltayz equal 0.01*yz
fix deform_p all deform 100 y delta 0 0.134502 yz delta 3.4e-05 remap v units box

# Run deformation MD
*****Positive-deform 2 starts.*****
include ff.mod.lmp
# Setup forcefield, system
# undefine any fix ave/* fix before using reset_timestep
if "$(is_defined(fix,avgp))" then "unfix avgp"
if "$(is_defined(fix,avgl))" then "unfix avgl"
reset_timestep 0

# Assign the force field
pair_style reaxff NULL safezone 3.0 mincap 150
pair_coeff * * SiOCHN_2018.ff C H O Si

# charge method for reaxff
fix myqeq all qeq/reaxff 1 0.0 10.0 1.0e-6 reaxff maxiter 400
# Setup neighbor style
neighbor        2 bin
neigh_modify    every 10 delay 0 check yes

# Setup output
thermo		100
thermo_style custom step temp pe press vol
# thermo_style custom step vol lx ly lz yz xz xy
thermo_modify norm no
# thermo_modify line multi

# Sample pressure (and length vector)
fix avgp all ave/time  10 10 100 c_thermo_press mode vector
# variable lx equal lx
# variable ly equal ly
# variable lz equal lz

# nvt
fix fnvt all nvt temp 300 300 50

# # compute MSD and RDF
# compute msd1 all msd
# C-C C-Si Si-O C-H Si-Si
# compute rdf1 all rdf 100 1 1 1 4 3 4 1 2 4 4 cutoff 5.0

# save trajectory
dump dump_pos2 all custom/gz 100 dump/pos_deform2.lammpstrj.gz id type q x y z
run 5000
Step          Temp          PotEng         Press          Volume
0   299.62481     -39709.007      23288.44       3875.657
Averages over the last 26 of 51 rows, steps 2500 to 5000:
Temp PotEng Press Volume
299.588 -39705.2 8316.31 3904.72
Loop time of 139.366 on 16 procs for 5000 steps with 386 atoms

unfix deform_p
unfix data
undump dump_pos2

# Delete dir to make sure it is not reused
variable dir delete
# uzz Perturbation
variable dir equal 3
include displace.mod.lmp
# Find which length (epsilon) to calculate
variable len0 equal 17.3502
variable dlen equal lz-17.3502

# strain vector (epsilon)
variable eps equal v_dlen/v_len0

# stress vector (sigma)
variable sig1 equal -f_avgp[1]*0.000101325
variable sig2 equal -f_avgp[2]*0.000101325
variable sig3 equal -f_avgp[3]*0.000101325
variable sig4 equal -f_avgp[6]*0.000101325
variable sig5 equal -f_avgp[5]*0.000101325
variable sig6 equal -f_avgp[4]*0.000101325

# Reset box and simulation parameters
clear
# box tilt large
read_restart equil.res
Reading restart file ...
  restart file = 2 Aug 2023, LAMMPS = 2 Aug 2023
  restoring atom style full from restart
  triclinic box = (0 0 0) to (16.6078 13.4502 17.3502) with tilt (-9.4505 -1.0717 0.0034)
  pair style reaxff stores no restart info
  386 atoms
Finding 1-2 1-3 1-4 neighbors ...
     0 = max # of 1-2 neighbors
     0 = max # of 1-3 neighbors
     0 = max # of 1-4 neighbors
     1 = max # of special neighbors
  read_restart CPU = 0.002 seconds

# Negative deformation
variable delta equal -0.01*17.3502
variable deltaxy equal -0.01*xy
variable deltaxz equal -0.01*xz
variable deltayz equal -0.01*yz
print "*****debug*****"
*****debug*****
xy = -9.4504999999999999005, deltaxy = 0.094505
xz = -1.071700000000000097, deltaxz = 0.010717
yz = 0.0033999999999999998106, deltayz = -3.4e-05
print "*****"
*****

fix deform_n all deform 100 z delta 0 -0.173502 remap v units box flip no

# Run MD for Negative deformation
*****Negative-deform 3 starts.*****
include ff.mod.lmp
# Setup forcefield, system
# undefine any fix ave/* fix before using reset_timestep
if "$(is_defined(fix,avgp))" then "unfix avgp"
if "$(is_defined(fix,avgl))" then "unfix avgl"
reset_timestep 0

# Assign the force field
pair_style reaxff NULL safezone 3.0 mincap 150
pair_coeff * * SiOCHN_2018.ff C H O Si

# charge method for reaxff
fix myqeq all qeq/reaxff 1 0.0 10.0 1.0e-6 reaxff maxiter 400
# Setup neighbor style
neighbor        2 bin
neigh_modify    every 10 delay 0 check yes

# Setup output
thermo		100
thermo_style custom step temp pe press vol
# thermo_style custom step vol lx ly lz yz xz xy
thermo_modify norm no
# thermo_modify line multi

# Sample pressure (and length vector)
fix avgp all ave/time  10 10 100 c_thermo_press mode vector
# variable lx equal lx
# variable ly equal ly
# variable lz equal lz

# nvt
fix fnvt all nvt temp 300 300 50

# save trajectory
dump dump_neg3 all custom/gz 100 dump/neg_deform3.lammpstrj.gz id type q x y z
run 5000
Step          Temp          PotEng         Press          Volume
0   299.62481     -39709.007      23288.44       3875.657
Averages over the last 26 of 51 rows, steps 2500 to 5000:
Temp PotEng Press Volume
297.747 -39703.3 12309.5 3846.59
Loop time of 152.154 on 16 procs for 5000 steps with 386 atoms

unfix deform_n
unfix data
undump dump_neg3

# Reset box and simulation parameters
clear
# box tilt large
read_restart equil.res
Reading restart file ...
  restart file = 2 Aug 2023, LAMMPS = 2 Aug 2023
  restoring atom style full from restart
  triclinic box = (0 0 0) to (16.6078 13.4502 17.3502) with tilt (-9.4505 -1.0717 0.0034)
  pair style reaxff stores no restart info
  386 atoms
Finding 1-2 1-3 1-4 neighbors ...
     0 = max # of 1-2 neighbors
     0 = max # of 1-3 neighbors
     0 = max # of 1-4 neighbors
     1 = max # of special neighbors
  read_restart CPU = 0.002 seconds

# Positive deformation
variable delta equal 0.01*17.3502
variable deltaxy equal 0.01*xy
variable deltaxz equal 0.01*xz
variable deltayz equal 0.01*yz
fix deform_p all deform 100 z delta 0 0.173502 remap v units box

# Run deformation MD
*****Positive-deform 3 starts.*****
include ff.mod.lmp
# Setup forcefield, system
# undefine any fix ave/* fix before using reset_timestep
if "$(is_defined(fix,avgp))" then "unfix avgp"
if "$(is_defined(fix,avgl))" then "unfix avgl"
reset_timestep 0

# Assign the force field
pair_style reaxff NULL safezone 3.0 mincap 150
pair_coeff * * SiOCHN_2018.ff C H O Si

# charge method for reaxff
fix myqeq all qeq/reaxff 1 0.0 10.0 1.0e-6 reaxff maxiter 400
# Setup neighbor style
neighbor        2 bin
neigh_modify    every 10 delay 0 check yes

# Setup output
thermo		100
thermo_style custom step temp pe press vol
# thermo_style custom step vol lx ly lz yz xz xy
thermo_modify norm no
# thermo_modify line multi

# Sample pressure (and length vector)
fix avgp all ave/time  10 10 100 c_thermo_press mode vector
# variable lx equal lx
# variable ly equal ly
# variable lz equal lz

# nvt
fix fnvt all nvt temp 300 300 50

# # compute MSD and RDF
# compute msd1 all msd
# C-C C-Si Si-O C-H Si-Si
# compute rdf1 all rdf 100 1 1 1 4 3 4 1 2 4 4 cutoff 5.0

# save trajectory
dump dump_pos3 all custom/gz 100 dump/pos_deform3.lammpstrj.gz id type q x y z
run 5000
Step          Temp          PotEng         Press          Volume
0   299.62481     -39709.007      23288.44       3875.657
Averages over the last 26 of 51 rows, steps 2500 to 5000:
Temp PotEng Press Volume
298.821 -39707.2 3782.26 3904.72
Loop time of 150.506 on 16 procs for 5000 steps with 386 atoms

unfix deform_p
unfix data
undump dump_pos3

# Delete dir to make sure it is not reused
variable dir delete
# uyz Perturbation
variable dir equal 4
include displace.mod.lmp
# Find which length (epsilon) to calculate
variable len0 equal 16.6078
variable dlen equal 2*(yz-0.0034)

# strain vector (epsilon)
variable eps equal v_dlen/v_len0

# stress vector (sigma)
variable sig1 equal -f_avgp[1]*0.000101325
variable sig2 equal -f_avgp[2]*0.000101325
variable sig3 equal -f_avgp[3]*0.000101325
variable sig4 equal -f_avgp[6]*0.000101325
variable sig5 equal -f_avgp[5]*0.000101325
variable sig6 equal -f_avgp[4]*0.000101325

# Reset box and simulation parameters
clear
# box tilt large
read_restart equil.res
Reading restart file ...
  restart file = 2 Aug 2023, LAMMPS = 2 Aug 2023
  restoring atom style full from restart
  triclinic box = (0 0 0) to (16.6078 13.4502 17.3502) with tilt (-9.4505 -1.0717 0.0034)
  pair style reaxff stores no restart info
  386 atoms
Finding 1-2 1-3 1-4 neighbors ...
     0 = max # of 1-2 neighbors
     0 = max # of 1-3 neighbors
     0 = max # of 1-4 neighbors
     1 = max # of special neighbors
  read_restart CPU = 0.002 seconds

# Negative deformation
variable delta equal -0.01*16.6078
variable deltaxy equal -0.01*xy
variable deltaxz equal -0.01*xz
variable deltayz equal -0.01*yz
print "*****debug*****"
*****debug*****
xy = -9.4504999999999999005, deltaxy = 0.094505
xz = -1.071700000000000097, deltaxz = 0.010717
yz = 0.0033999999999999998106, deltayz = -3.4e-05
print "*****"
*****

fix deform_n all deform 100 yz delta -0.166078 remap v units box flip no

# Run MD for Negative deformation
*****Negative-deform 4 starts.*****
include ff.mod.lmp
# Setup forcefield, system
# undefine any fix ave/* fix before using reset_timestep
if "$(is_defined(fix,avgp))" then "unfix avgp"
if "$(is_defined(fix,avgl))" then "unfix avgl"
reset_timestep 0

# Assign the force field
pair_style reaxff NULL safezone 3.0 mincap 150
pair_coeff * * SiOCHN_2018.ff C H O Si

# charge method for reaxff
fix myqeq all qeq/reaxff 1 0.0 10.0 1.0e-6 reaxff maxiter 400
# Setup neighbor style
neighbor        2 bin
neigh_modify    every 10 delay 0 check yes

# Setup output
thermo		100
thermo_style custom step temp pe press vol
# thermo_style custom step vol lx ly lz yz xz xy
thermo_modify norm no
# thermo_modify line multi

# Sample pressure (and length vector)
fix avgp all ave/time  10 10 100 c_thermo_press mode vector
# variable lx equal lx
# variable ly equal ly
# variable lz equal lz

# nvt
fix fnvt all nvt temp 300 300 50

# save trajectory
dump dump_neg4 all custom/gz 100 dump/neg_deform4.lammpstrj.gz id type q x y z
run 5000
Step          Temp          PotEng         Press          Volume
0   299.62481     -39709.007      23288.44       3875.657
Averages over the last 26 of 51 rows, steps 2500 to 5000:
Temp PotEng Press Volume
298.884 -39703.6 9665.12 3875.66
Loop time of 151.437 on 16 procs for 5000 steps with 386 atoms

unfix deform_n
unfix data
undump dump_neg4

# Reset box and simulation parameters
clear
# box tilt large
read_restart equil.res
Reading restart file ...
  restart file = 2 Aug 2023, LAMMPS = 2 Aug 2023
  restoring atom style full from restart
  triclinic box = (0 0 0) to (16.6078 13.4502 17.3502) with tilt (-9.4505 -1.0717 0.0034)
  pair style reaxff stores no restart info
  386 atoms
Finding 1-2 1-3 1-4 neighbors ...
     0 = max # of 1-2 neighbors
     0 = max # of 1-3 neighbors
     0 = max # of 1-4 neighbors
     1 = max # of special neighbors
  read_restart CPU = 0.002 seconds

# Positive deformation
variable delta equal 0.01*16.6078
variable deltaxy equal 0.01*xy
variable deltaxz equal 0.01*xz
variable deltayz equal 0.01*yz
fix deform_p all deform 100 yz delta 0.166078 remap v units box

# Run deformation MD
*****Positive-deform 4 starts.*****
include ff.mod.lmp
# Setup forcefield, system
# undefine any fix ave/* fix before using reset_timestep
if "$(is_defined(fix,avgp))" then "unfix avgp"
if "$(is_defined(fix,avgl))" then "unfix avgl"
reset_timestep 0

# Assign the force field
pair_style reaxff NULL safezone 3.0 mincap 150
pair_coeff * * SiOCHN_2018.ff C H O Si

# charge method for reaxff
fix myqeq all qeq/reaxff 1 0.0 10.0 1.0e-6 reaxff maxiter 400
# Setup neighbor style
neighbor        2 bin
neigh_modify    every 10 delay 0 check yes

# Setup output
thermo		100
thermo_style custom step temp pe press vol
# thermo_style custom step vol lx ly lz yz xz xy
thermo_modify norm no
# thermo_modify line multi

# Sample pressure (and length vector)
fix avgp all ave/time  10 10 100 c_thermo_press mode vector
# variable lx equal lx
# variable ly equal ly
# variable lz equal lz

# nvt
fix fnvt all nvt temp 300 300 50

# # compute MSD and RDF
# compute msd1 all msd
# C-C C-Si Si-O C-H Si-Si
# compute rdf1 all rdf 100 1 1 1 4 3 4 1 2 4 4 cutoff 5.0

# save trajectory
dump dump_pos4 all custom/gz 100 dump/pos_deform4.lammpstrj.gz id type q x y z
run 5000
Step          Temp          PotEng         Press          Volume
0   299.62481     -39709.007      23288.44       3875.657
Averages over the last 26 of 51 rows, steps 2500 to 5000:
Temp PotEng Press Volume
299.435 -39706.3 10282.7 3875.66
Loop time of 140.524 on 16 procs for 5000 steps with 386 atoms

unfix deform_p
unfix data
undump dump_pos4

# Delete dir to make sure it is not reused
variable dir delete
# uxz Perturbation
variable dir equal 5
include displace.mod.lmp
# Find which length (epsilon) to calculate
variable len0 equal 13.4502
variable dlen equal 2*(xz--1.0717)

# strain vector (epsilon)
variable eps equal v_dlen/v_len0

# stress vector (sigma)
variable sig1 equal -f_avgp[1]*0.000101325
variable sig2 equal -f_avgp[2]*0.000101325
variable sig3 equal -f_avgp[3]*0.000101325
variable sig4 equal -f_avgp[6]*0.000101325
variable sig5 equal -f_avgp[5]*0.000101325
variable sig6 equal -f_avgp[4]*0.000101325

# Reset box and simulation parameters
clear
# box tilt large
read_restart equil.res
Reading restart file ...
  restart file = 2 Aug 2023, LAMMPS = 2 Aug 2023
  restoring atom style full from restart
  triclinic box = (0 0 0) to (16.6078 13.4502 17.3502) with tilt (-9.4505 -1.0717 0.0034)
  pair style reaxff stores no restart info
  386 atoms
Finding 1-2 1-3 1-4 neighbors ...
     0 = max # of 1-2 neighbors
     0 = max # of 1-3 neighbors
     0 = max # of 1-4 neighbors
     1 = max # of special neighbors
  read_restart CPU = 0.002 seconds

# Negative deformation
variable delta equal -0.01*13.4502
variable deltaxy equal -0.01*xy
variable deltaxz equal -0.01*xz
variable deltayz equal -0.01*yz
print "*****debug*****"
*****debug*****
xy = -9.4504999999999999005, deltaxy = 0.094505
xz = -1.071700000000000097, deltaxz = 0.010717
yz = 0.0033999999999999998106, deltayz = -3.4e-05
print "*****"
*****

fix deform_n all deform 100 xz delta -0.134502 remap v units box flip no

# Run MD for Negative deformation
*****Negative-deform 5 starts.*****
include ff.mod.lmp
# Setup forcefield, system
# undefine any fix ave/* fix before using reset_timestep
if "$(is_defined(fix,avgp))" then "unfix avgp"
if "$(is_defined(fix,avgl))" then "unfix avgl"
reset_timestep 0

# Assign the force field
pair_style reaxff NULL safezone 3.0 mincap 150
pair_coeff * * SiOCHN_2018.ff C H O Si

# charge method for reaxff
fix myqeq all qeq/reaxff 1 0.0 10.0 1.0e-6 reaxff maxiter 400
# Setup neighbor style
neighbor        2 bin
neigh_modify    every 10 delay 0 check yes

# Setup output
thermo		100
thermo_style custom step temp pe press vol
# thermo_style custom step vol lx ly lz yz xz xy
thermo_modify norm no
# thermo_modify line multi

# Sample pressure (and length vector)
fix avgp all ave/time  10 10 100 c_thermo_press mode vector
# variable lx equal lx
# variable ly equal ly
# variable lz equal lz

# nvt
fix fnvt all nvt temp 300 300 50

# save trajectory
dump dump_neg5 all custom/gz 100 dump/neg_deform5.lammpstrj.gz id type q x y z
run 5000
Step          Temp          PotEng         Press          Volume
0   299.62481     -39709.007      23288.44       3875.657
Averages over the last 26 of 51 rows, steps 2500 to 5000:
Temp PotEng Press Volume
300.237 -39706.1 8268.87 3875.66
Loop time of 151.603 on 16 procs for 5000 steps with 386 atoms

unfix deform_n
unfix data
undump dump_neg5

# Reset box and simulation parameters
clear
# box tilt large
read_restart equil.res
Reading restart file ...
  restart file = 2 Aug 2023, LAMMPS = 2 Aug 2023
  restoring atom style full from restart
  triclinic box = (0 0 0) to (16.6078 13.4502 17.3502) with tilt (-9.4505 -1.0717 0.0034)
  pair style reaxff stores no restart info
  386 atoms
Finding 1-2 1-3 1-4 neighbors ...
     0 = max # of 1-2 neighbors
     0 = max # of 1-3 neighbors
     0 = max # of 1-4 neighbors
     1 = max # of special neighbors
  read_restart CPU = 0.002 seconds

# Positive deformation
variable delta equal 0.01*13.4502
variable deltaxy equal 0.01*xy
variable deltaxz equal 0.01*xz
variable deltayz equal 0.01*yz
fix deform_p all deform 100 xz delta 0.134502 remap v units box

# Run deformation MD
*****Positive-deform 5 starts.*****
include ff.mod.lmp
# Setup forcefield, system
# undefine any fix ave/* fix before using reset_timestep
if "$(is_defined(fix,avgp))" then "unfix avgp"
if "$(is_defined(fix,avgl))" then "unfix avgl"
reset_timestep 0

# Assign the force field
pair_style reaxff NULL safezone 3.0 mincap 150
pair_coeff * * SiOCHN_2018.ff C H O Si

# charge method for reaxff
fix myqeq all qeq/reaxff 1 0.0 10.0 1.0e-6 reaxff maxiter 400
# Setup neighbor style
neighbor        2 bin
neigh_modify    every 10 delay 0 check yes

# Setup output
thermo		100
thermo_style custom step temp pe press vol
# thermo_style custom step vol lx ly lz yz xz xy
thermo_modify norm no
# thermo_modify line multi

# Sample pressure (and length vector)
fix avgp all ave/time  10 10 100 c_thermo_press mode vector
# variable lx equal lx
# variable ly equal ly
# variable lz equal lz

# nvt
fix fnvt all nvt temp 300 300 50

# # compute MSD and RDF
# compute msd1 all msd
# C-C C-Si Si-O C-H Si-Si
# compute rdf1 all rdf 100 1 1 1 4 3 4 1 2 4 4 cutoff 5.0

# save trajectory
dump dump_pos5 all custom/gz 100 dump/pos_deform5.lammpstrj.gz id type q x y z
run 5000
Step          Temp          PotEng         Press          Volume
0   299.62481     -39709.007      23288.44       3875.657
Averages over the last 26 of 51 rows, steps 2500 to 5000:
Temp PotEng Press Volume
299.55 -39702.9 5318.65 3875.66
Loop time of 127.567 on 16 procs for 5000 steps with 386 atoms

unfix deform_p
unfix data
undump dump_pos5

# Delete dir to make sure it is not reused
variable dir delete
# uxy Perturbation
variable dir equal 6
include displace.mod.lmp
# Find which length (epsilon) to calculate
variable len0 equal 17.3502
variable dlen equal 2*(xy--9.4505)

# strain vector (epsilon)
variable eps equal v_dlen/v_len0

# stress vector (sigma)
variable sig1 equal -f_avgp[1]*0.000101325
variable sig2 equal -f_avgp[2]*0.000101325
variable sig3 equal -f_avgp[3]*0.000101325
variable sig4 equal -f_avgp[6]*0.000101325
variable sig5 equal -f_avgp[5]*0.000101325
variable sig6 equal -f_avgp[4]*0.000101325

# Reset box and simulation parameters
clear
# box tilt large
read_restart equil.res
Reading restart file ...
  restart file = 2 Aug 2023, LAMMPS = 2 Aug 2023
  restoring atom style full from restart
  triclinic box = (0 0 0) to (16.6078 13.4502 17.3502) with tilt (-9.4505 -1.0717 0.0034)
  pair style reaxff stores no restart info
  386 atoms
Finding 1-2 1-3 1-4 neighbors ...
     0 = max # of 1-2 neighbors
     0 = max # of 1-3 neighbors
     0 = max # of 1-4 neighbors
     1 = max # of special neighbors
  read_restart CPU = 0.002 seconds

# Negative deformation
variable delta equal -0.01*17.3502
variable deltaxy equal -0.01*xy
variable deltaxz equal -0.01*xz
variable deltayz equal -0.01*yz
print "*****debug*****"
*****debug*****
xy = -9.4504999999999999005, deltaxy = 0.094505
xz = -1.071700000000000097, deltaxz = 0.010717
yz = 0.0033999999999999998106, deltayz = -3.4e-05
print "*****"
*****

fix deform_n all deform 100 xy delta -0.173502 remap v units box flip no

# Run MD for Negative deformation
*****Negative-deform 6 starts.*****
include ff.mod.lmp
# Setup forcefield, system
# undefine any fix ave/* fix before using reset_timestep
if "$(is_defined(fix,avgp))" then "unfix avgp"
if "$(is_defined(fix,avgl))" then "unfix avgl"
reset_timestep 0

# Assign the force field
pair_style reaxff NULL safezone 3.0 mincap 150
pair_coeff * * SiOCHN_2018.ff C H O Si

# charge method for reaxff
fix myqeq all qeq/reaxff 1 0.0 10.0 1.0e-6 reaxff maxiter 400
# Setup neighbor style
neighbor        2 bin
neigh_modify    every 10 delay 0 check yes

# Setup output
thermo		100
thermo_style custom step temp pe press vol
# thermo_style custom step vol lx ly lz yz xz xy
thermo_modify norm no
# thermo_modify line multi

# Sample pressure (and length vector)
fix avgp all ave/time  10 10 100 c_thermo_press mode vector
# variable lx equal lx
# variable ly equal ly
# variable lz equal lz

# nvt
fix fnvt all nvt temp 300 300 50

# save trajectory
dump dump_neg6 all custom/gz 100 dump/neg_deform6.lammpstrj.gz id type q x y z
run 5000
Step          Temp          PotEng         Press          Volume
0   299.62481     -39709.007      23288.44       3875.657
Averages over the last 26 of 51 rows, steps 2500 to 5000:
Temp PotEng Press Volume
300.483 -39706.5 6950.09 3875.66
Loop time of 134.054 on 16 procs for 5000 steps with 386 atoms

unfix deform_n
unfix data
undump dump_neg6

# Reset box and simulation parameters
clear
# box tilt large
read_restart equil.res
Reading restart file ...
  restart file = 2 Aug 2023, LAMMPS = 2 Aug 2023
  restoring atom style full from restart
  triclinic box = (0 0 0) to (16.6078 13.4502 17.3502) with tilt (-9.4505 -1.0717 0.0034)
  pair style reaxff stores no restart info
  386 atoms
Finding 1-2 1-3 1-4 neighbors ...
     0 = max # of 1-2 neighbors
     0 = max # of 1-3 neighbors
     0 = max # of 1-4 neighbors
     1 = max # of special neighbors
  read_restart CPU = 0.002 seconds

# Positive deformation
variable delta equal 0.01*17.3502
variable deltaxy equal 0.01*xy
variable deltaxz equal 0.01*xz
variable deltayz equal 0.01*yz
fix deform_p all deform 100 xy delta 0.173502 remap v units box

# Run deformation MD
*****Positive-deform 6 starts.*****
include ff.mod.lmp
# Setup forcefield, system
# undefine any fix ave/* fix before using reset_timestep
if "$(is_defined(fix,avgp))" then "unfix avgp"
if "$(is_defined(fix,avgl))" then "unfix avgl"
reset_timestep 0

# Assign the force field
pair_style reaxff NULL safezone 3.0 mincap 150
pair_coeff * * SiOCHN_2018.ff C H O Si

# charge method for reaxff
fix myqeq all qeq/reaxff 1 0.0 10.0 1.0e-6 reaxff maxiter 400
# Setup neighbor style
neighbor        2 bin
neigh_modify    every 10 delay 0 check yes

# Setup output
thermo		100
thermo_style custom step temp pe press vol
# thermo_style custom step vol lx ly lz yz xz xy
thermo_modify norm no
# thermo_modify line multi

# Sample pressure (and length vector)
fix avgp all ave/time  10 10 100 c_thermo_press mode vector
# variable lx equal lx
# variable ly equal ly
# variable lz equal lz

# nvt
fix fnvt all nvt temp 300 300 50

# # compute MSD and RDF
# compute msd1 all msd
# C-C C-Si Si-O C-H Si-Si
# compute rdf1 all rdf 100 1 1 1 4 3 4 1 2 4 4 cutoff 5.0

# save trajectory
dump dump_pos6 all custom/gz 100 dump/pos_deform6.lammpstrj.gz id type q x y z
run 5000
Step          Temp          PotEng         Press          Volume
0   299.62481     -39709.007      23288.44       3875.657
Averages over the last 26 of 51 rows, steps 2500 to 5000:
Temp PotEng Press Volume
299.789 -39709.1 10883.5 3875.66
Loop time of 123.621 on 16 procs for 5000 steps with 386 atoms

unfix deform_p
unfix data
undump dump_pos6

# Delete dir to make sure it is not reused
variable dir delete

# Calc and output
# include calc.mod.lmp
