LAMMPS (2 Aug 2023 - Update 2)
# Muller-Plathe method via fix thermal_conductivity

# Initialization
units           real
dimension       3
boundary        p p p
atom_style      full
timestep        0.5   # fs

# settings

# variable        x equal 10
# variable        y equal 10
# variable        z equal 20

# variable        rho equal 0.6
variable        t equal 300.0
# variable        rc equal 2.5

#variable       rho equal 0.85
#variable        t equal 0.7
#variable       rc equal 3.0

read_data sicoh.data
Reading data file ...
  triclinic box = (0 0 0) to (16.8189 12.842 16.0755) with tilt (-8.3798 1.195 0.4312)
  reading atoms ...
  274 atoms
Finding 1-2 1-3 1-4 neighbors ...
     0 = max # of 1-2 neighbors
     0 = max # of 1-3 neighbors
     0 = max # of 1-4 neighbors
     1 = max # of special neighbors

velocity        all create $t 87287
velocity        all create 300 87287

# Assign the force field
pair_style reaxff NULL safezone 3.0 mincap 150
# pair_coeff * * CHONSSi.ff O Si
# pair_coeff * * CHOSiNa.ff O Si
# pair_coeff * * SiOCHN_2018.ff O Si
# pair_coeff * * PDMSDecomp.ff Si O
pair_coeff * * CHONSi.ff C H O Si
# pair_coeff * * CHOFe.ff O Si

# charge method for reaxff
fix myqeq all qeq/reaxff 1 0.0 10.0 1.0e-6 reaxff maxiter 400
# Setup neighbor style
neighbor        2 bin
neigh_modify    every 10 delay 0 check no

# 1st equilibration run

fix             1 all nvt temp $t $t 0.5
fix             1 all nvt temp 300 $t 0.5
fix             1 all nvt temp 300 300 0.5
thermo          100
run             1000

CITE-CITE-CITE-CITE-CITE-CITE-CITE-CITE-CITE-CITE-CITE-CITE-CITE

Your simulation uses code contributions which should be cited:

- pair reaxff command: doi:10.1016/j.parco.2011.08.005

@Article{Aktulga12,
 author = {H. M. Aktulga and J. C. Fogarty and S. A. Pandit and A. Y. Grama},
 title = {Parallel Reactive Molecular Dynamics: {N}umerical Methods and Algorithmic Techniques},
 journal = {Parallel Computing},
 year =    2012,
 volume =  38,
 number =  {4--5},
 pages =   {245--259}
}

- fix qeq/reaxff command: doi:10.1016/j.parco.2011.08.005

@Article{Aktulga12,
 author = {H. M. Aktulga and J. C. Fogarty and S. A. Pandit and A. Y. Grama},
 title = {Parallel Reactive Molecular Dynamics: {N}umerical Methods and Algorithmic Techniques},
 journal = {Parallel Computing},
 year =    2012,
 volume =  38,
 pages =   {245--259}
}

CITE-CITE-CITE-CITE-CITE-CITE-CITE-CITE-CITE-CITE-CITE-CITE-CITE

Step          Temp          E_pair         E_mol          TotEng         Press
0   300           -29524.072      0             -29279.944      53373.102
Averages over the last 6 of 11 rows, steps 500 to 1000:
Temp E_pair E_mol TotEng Press
295.743 -32022.2 0 -31781.5 -2350.22
Loop time of 17.8507 on 16 procs for 1000 steps with 274 atoms

velocity        all scale $t
velocity        all scale 300

unfix           1

# 2nd equilibration run

compute         ke all ke/atom
variable        temp atom c_ke/1.5

fix             1 all nve

compute         layers all chunk/atom bin/1d z lower 0.05 units reduced
fix             2 all ave/chunk 10 100 1000 layers v_temp file profile.mp
fix             3 all thermal/conductivity 10 z 20

variable        tdiff equal f_2[11][3]-f_2[1][3]
thermo_style    custom step temp epair etotal f_3 v_tdiff
thermo_modify   colname f_3 E_delta colname v_tdiff dTemp_step

thermo          1000
run             20000
Step          Temp          E_pair         TotEng        E_delta       dTemp_step
1000   300           -32088.504     -31844.375      0              0
Averages over the last 11 of 21 rows, steps 11000 to 21000:
Temp E_pair TotEng E_delta dTemp_step
344.671 -32122 -31841.6 1014.49 0.823707
Loop time of 368.731 on 16 procs for 20000 steps with 274 atoms

# thermal conductivity calculation
# reset fix thermal/conductivity to zero energy accumulation
fix             3 all thermal/conductivity 10 z 20

variable start_time equal time
variable kappa equal (f_3/(time-10500)/(lx*ly)/2.0)*(lz/2.0)/f_ave

fix             ave all ave/time 1 1 1000 v_tdiff ave running
thermo_style    custom step temp epair etotal f_3 v_tdiff f_ave
thermo_modify   colname f_3 E_delta colname v_tdiff dTemp_step colname f_ave dTemp

run             20000
Step          Temp          E_pair         TotEng        E_delta       dTemp_step       dTemp
21000   320.83764     -32101.024     -31839.939      0              0.8551563      0.8551563
Averages over the last 11 of 21 rows, steps 31000 to 41000:
Temp E_pair TotEng E_delta dTemp_step dTemp
352.743 -32119.4 -31832.3 1038.09 0.768466 0.74136
Loop time of 369.686 on 16 procs for 20000 steps with 274 atoms

print           "Running average thermal conductivity: $(v_kappa:%.2f)"
Running average thermal conductivity: 0.00
%.2f)"
ERROR: Unmatched double quote in command (src/input.cpp:453)
Last command: %.2f)"
