LAMMPS (2 Aug 2023 - Update 2)
# Initialization
units           real
dimension       3
boundary        p p p
atom_style      full
timestep        0.5   # fs

variable       Tl equal 300.0   # low temperature
variable       Th equal 2200.0  # high temperature
variable       Td equal 50.0  # damping time
variable       P equal 1.0  # pressure
variable       Ph equal 1.0  # pressure
variable       Pd equal 10*50
variable       nrun equal 100  # number of steps
variable       nequil equal 50*100
variable       nheat equal 20*100
variable       ncool equal 100*100
variable       nthermo equal 100

# Read the initial sctructure
# box tilt large
variable structure string 333-EXP-6-vasp
read_data       333-EXP-6-vasp.data
Reading data file ...
  triclinic box = (0 0 0) to (15.4861 14.0699 16.771) with tilt (-7.3915 0.9919 1.0308)
  reading atoms ...
  274 atoms
Finding 1-2 1-3 1-4 neighbors ...
     0 = max # of 1-2 neighbors
     0 = max # of 1-3 neighbors
     0 = max # of 1-4 neighbors
     1 = max # of special neighbors

# Assign the force field
pair_style reaxff NULL safezone 3.0 mincap 150
# pair_coeff * * CHONSSi.ff O Si
# pair_coeff * * CHOSiNa.ff O Si
# pair_coeff * * SiOCHN_2018.ff C H O Si
# pair_coeff * * PDMSDecomp.ff Si O
pair_coeff * * CHONSi.ff C H O Si
# pair_coeff * * CHOFe.ff O Si

fix myqeq all qeq/reaxff 1 0.0 10.0 1.0e-6 reaxff maxiter 400
fix bondinfo all reaxff/bonds 100 bonds.reaxff

neighbor        2 bin
neigh_modify    every 10 delay 0 check no

# Print system info
thermo          100
thermo_style    custom step temp press density pe etotal

# Energy minimization
print "*****Minimization starts.*****"
*****Minimization starts.*****
fix min1 all nve
minimize 1.0e-6 1.0e-6 100 1000

CITE-CITE-CITE-CITE-CITE-CITE-CITE-CITE-CITE-CITE-CITE-CITE-CITE

Your simulation uses code contributions which should be cited:

- pair reaxff command: doi:10.1016/j.parco.2011.08.005

@Article{Aktulga12,
 author = {H. M. Aktulga and J. C. Fogarty and S. A. Pandit and A. Y. Grama},
 title = {Parallel Reactive Molecular Dynamics: {N}umerical Methods and Algorithmic Techniques},
 journal = {Parallel Computing},
 year =    2012,
 volume =  38,
 number =  {4--5},
 pages =   {245--259}
}

- fix qeq/reaxff command: doi:10.1016/j.parco.2011.08.005

@Article{Aktulga12,
 author = {H. M. Aktulga and J. C. Fogarty and S. A. Pandit and A. Y. Grama},
 title = {Parallel Reactive Molecular Dynamics: {N}umerical Methods and Algorithmic Techniques},
 journal = {Parallel Computing},
 year =    2012,
 volume =  38,
 pages =   {245--259}
}

CITE-CITE-CITE-CITE-CITE-CITE-CITE-CITE-CITE-CITE-CITE-CITE-CITE

Step          Temp          Press         Density         PotEng         TotEng
0   0              53002.06       1.3867102     -29318.373     -29318.373
Loop time of 53.2054 on 1 procs for 71 steps with 274 atoms

Minimization stats:
  Stopping criterion = energy tolerance
  Energy initial, next-to-last, final =
  Force two-norm initial, final = 1919.8576 145.01614
  Force max component initial, final = 252.2791 53.0809
  Final line search alpha, max atom move = 0.0019518829 0.1036077
  Iterations, force evaluations = 71 155

unfix min1
# Save the optimized structure
write_data 333-EXP-6-vasp_opt.data
System init for write_data ...

reset_timestep 0
# Save trajectory
#dump dump1 all custom 500 dump_opt.lammpstrj id type x y z q
dump dump1 all custom 100 dump_all.lammpstrj   id   type   x   y   z   q

# equilibration at low T
print "*****Equilibration starts.*****"
*****Equilibration starts.*****
velocity        all create 300 12345
fix             equil1 all npt temp 300 300 50 tri 1 1 500
# 1 ps : 1e3 fs / 0.5 fs = 2e3 steps
run             5000
Step          Temp          Press         Density         PotEng         TotEng
0   300           -8929.1741      1.3867102     -32065.732     -31821.603
Averages over the last 26 of 51 rows, steps 2500 to 5000:
Temp Press Density PotEng TotEng
298.055 1366.03 1.5342 -32239.1 -31996.5
Loop time of 1899.27 on 1 procs for 5000 steps with 274 atoms

# Heat to high T
print "*****Heat starts.*****"
*****Heat starts.*****
unfix           equil1
fix             heat1 all nvt temp 300 2200 50
# 1 ps : 1e3 fs / 0.5 fs = 2e3 steps
run             2000
Step          Temp          Press         Density         PotEng         TotEng
5000   292.80903      4806.0724      1.5322702     -32228.088     -31989.811
Averages over the last 11 of 21 rows, steps 6000 to 7000:
Temp Press Density PotEng TotEng
1685.04 11839.2 1.53227 -30912.9 -29541.7
Loop time of 704.822 on 1 procs for 2000 steps with 274 atoms

# middle equilibration at high T
print "*****Middle equilibration starts.*****"
*****Middle equilibration starts.*****
velocity        all create 300 12345
unfix             heat1
fix             equil2 all nvt temp 2200 2200 50
# 1 ps : 1e3 fs / 0.5 fs = 2e3 steps

# cool down to low T
print "*****Cool starts.*****"
*****Cool starts.*****
unfix           equil2
fix             cool1 all nvt temp 2200 300 50
# 1 ps : 1e3 fs / 0.5 fs = 2e3 steps
run             10000
Step          Temp          Press         Density         PotEng         TotEng
7000   300           -36467.832      1.5322702     -30371.391     -30127.263
Averages over the last 51 of 101 rows, steps 12000 to 17000:
Temp Press Density PotEng TotEng
792.911 2902.54 1.53227 -31791.5 -31146.2
Loop time of 3524.15 on 1 procs for 10000 steps with 274 atoms

# final equilibration at low T
print "*****final equilibration starts.*****"
*****final equilibration starts.*****
unfix             cool1
fix             equil3 all npt temp 300 300 50 tri 1 1 500
# 1 ps : 1e3 fs / 0.5 fs = 2e3 steps
run             5000
Step          Temp          Press         Density         PotEng         TotEng
17000   310.60998      1299.2083      1.5322702     -32229.398     -31976.636
Averages over the last 26 of 51 rows, steps 19500 to 22000:
Temp Press Density PotEng TotEng
304.874 -539.024 1.56818 -32313.6 -32065.5
Loop time of 1750.38 on 1 procs for 5000 steps with 274 atoms

write_data  333-EXP-6-vasp-an.data
System init for write_data ...
