LAMMPS (2 Aug 2023 - Update 2)
# Initialization
units           real
dimension       3
boundary        p p p
atom_style      full
timestep        0.5   # fs

# Define MD parameters
variable nevery equal 10                  # sampling interval
variable nrepeat equal 10                 # number of samples
variable nthermo equal 10*10
variable nfreq equal 100
# 1 ps : 1e3 fs / 0.5 fs = 2e3 steps
variable nequil equal 30*100
variable nrun equal 30*100
variable temp equal 300.0                # temperature of initial sample
variable tdamp equal 50.0                 # time constant for thermostat
variable seed equal 123456                # seed for thermostat
variable ufac equal 1.01325e-4         # pressure unit conversion, from atm to Gpa
variable up equal 0.01                  # the deformation magnitude 2.0e-2

# Read the initial sctructure
# box tilt large
variable structure string 333U-50C-33-vasp
read_data       333U-50C-33-vasp.data
Reading data file ...
  triclinic box = (0 0 0) to (15.3172 13.8463 18.3222) with tilt (-7.7318 0.2463 -0.1382)
  reading atoms ...
  365 atoms
Finding 1-2 1-3 1-4 neighbors ...
     0 = max # of 1-2 neighbors
     0 = max # of 1-3 neighbors
     0 = max # of 1-4 neighbors
     1 = max # of special neighbors

# Energy minimization
print "*****Minimization starts.*****"
*****Minimization starts.*****
minimize 1.0e-6 1.0e-6 100 1000
Step          Temp          E_pair         E_mol          TotEng         Press
0   0              0              0              0              0
Loop time of 7.2146e-05 on 8 procs for 1 steps with 365 atoms

Minimization stats:
  Stopping criterion = search direction is not downhill
  Energy initial, next-to-last, final =
  Force two-norm initial, final = 0 0
  Force max component initial, final = 0 0
  Final line search alpha, max atom move = 0 0
  Iterations, force evaluations = 1 0

min_style cg
# Save the optimized structure
write_data 333U-50C-33-vasp_opt.data
System init for write_data ...
velocity        all create 300 123456 dist gaussian

# Equilibration
include ff.mod.lmp
# Setup forcefield, system
# undefine any fix ave/* fix before using reset_timestep
if "$(is_defined(fix,avgp))" then "unfix avgp"
reset_timestep 0

# Assign the force field
pair_style reaxff NULL safezone 3.0 mincap 150
# pair_coeff * * CHONSSi.ff O Si
# pair_coeff * * CHOSiNa.ff O Si
# pair_coeff * * SiOCHN_2018.ff O Si
# pair_coeff * * PDMSDecomp.ff Si O
pair_coeff * * CHONSi.ff C H O Si
# pair_coeff * * CHOFe.ff O Si

# charge method for reaxff
fix myqeq all qeq/reaxff 1 0.0 10.0 1.0e-6 reaxff maxiter 400
# Setup neighbor style
neighbor        2 bin
neigh_modify    every 10 delay 0 check no

# Setup output
fix avgp all ave/time  10 10 100 c_thermo_press mode vector
thermo		100
thermo_style custom step temp pe press f_avgp[1] vol
thermo_modify norm no

# NVT
fix 4 all nvt temp 300 300 50
thermo_style custom step temp pe press f_avgp[1] density vol
run 3000

CITE-CITE-CITE-CITE-CITE-CITE-CITE-CITE-CITE-CITE-CITE-CITE-CITE

Your simulation uses code contributions which should be cited:

- pair reaxff command: doi:10.1016/j.parco.2011.08.005

@Article{Aktulga12,
 author = {H. M. Aktulga and J. C. Fogarty and S. A. Pandit and A. Y. Grama},
 title = {Parallel Reactive Molecular Dynamics: {N}umerical Methods and Algorithmic Techniques},
 journal = {Parallel Computing},
 year =    2012,
 volume =  38,
 number =  {4--5},
 pages =   {245--259}
}

- fix qeq/reaxff command: doi:10.1016/j.parco.2011.08.005

@Article{Aktulga12,
 author = {H. M. Aktulga and J. C. Fogarty and S. A. Pandit and A. Y. Grama},
 title = {Parallel Reactive Molecular Dynamics: {N}umerical Methods and Algorithmic Techniques},
 journal = {Parallel Computing},
 year =    2012,
 volume =  38,
 pages =   {245--259}
}

CITE-CITE-CITE-CITE-CITE-CITE-CITE-CITE-CITE-CITE-CITE-CITE-CITE

Step          Temp          PotEng         Press        f_avgp[1]       Density         Volume
0   300           -40992.445      106056.12      0              1.701333       3885.8921
Averages over the last 16 of 31 rows, steps 1500 to 3000:
Temp PotEng Press f_avgp[1] Density Volume
297.069 -42613.5 -1919.7 -4829.78 1.70133 3885.89
Loop time of 142.159 on 8 procs for 3000 steps with 365 atoms

# Save the optimized structure
write_data 333U-50C-33-vasp_opt.data
System init for write_data ...

# Save initial pressure, box size
variable pxx0 equal f_avgp[1]
variable pyy0 equal f_avgp[2]
variable pzz0 equal f_avgp[3]
variable pxy0 equal f_avgp[4]
variable pxz0 equal f_avgp[5]
variable pyz0 equal f_avgp[6]

# use tmp to save initial box length
variable tmp equal lx
variable lx0 equal 15.3172
variable tmp equal ly
variable ly0 equal 13.8463
variable tmp equal lz
variable lz0 equal 18.3222

# define the derivatives, w.r.t. strain tensor
# Constants uses $, variables use v_
variable d1 equal -(v_pxx1-240.835424925498)/(v_delta/v_len0)*0.000101325
variable d2 equal -(v_pyy1--3479.20418394893)/(v_delta/v_len0)*0.000101325
variable d3 equal -(v_pzz1-3317.49967228972)/(v_delta/v_len0)*0.000101325
variable d4 equal -(v_pyz1-932.940008042902)/(v_delta/v_len0)*0.000101325*0.5
variable d5 equal -(v_pxz1--3073.73773087207)/(v_delta/v_len0)*0.000101325*0.5
variable d6 equal -(v_pxy1--2120.5966630907)/(v_delta/v_len0)*0.000101325*0.5

# Write restart
write_restart equil.res
System init for write_restart ...

# dir: direction
# uxx Perturbation
variable dir equal 1
include displace.mod.lmp
# Find which reference length to use
variable len0 equal 15.3172

# Reset box and simulation parameters
clear
# box tilt large
read_restart equil.res
Reading restart file ...
  restart file = 2 Aug 2023, LAMMPS = 2 Aug 2023
  restoring atom style full from restart
  triclinic box = (0 0 0) to (15.3172 13.8463 18.3222) with tilt (-7.7318 0.2463 -0.1382)
  pair style reaxff stores no restart info
  365 atoms
Finding 1-2 1-3 1-4 neighbors ...
     0 = max # of 1-2 neighbors
     0 = max # of 1-3 neighbors
     0 = max # of 1-4 neighbors
     1 = max # of special neighbors
  read_restart CPU = 0.002 seconds
*****Negative-change 1 starts.*****
include ff.mod.lmp
# Setup forcefield, system
# undefine any fix ave/* fix before using reset_timestep
if "$(is_defined(fix,avgp))" then "unfix avgp"
reset_timestep 0

# Assign the force field
pair_style reaxff NULL safezone 3.0 mincap 150
# pair_coeff * * CHONSSi.ff O Si
# pair_coeff * * CHOSiNa.ff O Si
# pair_coeff * * SiOCHN_2018.ff O Si
# pair_coeff * * PDMSDecomp.ff Si O
pair_coeff * * CHONSi.ff C H O Si
# pair_coeff * * CHOFe.ff O Si

# charge method for reaxff
fix myqeq all qeq/reaxff 1 0.0 10.0 1.0e-6 reaxff maxiter 400
# Setup neighbor style
neighbor        2 bin
neigh_modify    every 10 delay 0 check no

# Setup output
fix avgp all ave/time  10 10 100 c_thermo_press mode vector
thermo		100
thermo_style custom step temp pe press f_avgp[1] vol
thermo_modify norm no

# NVT
fix 4 all nvt temp 300 300 50
  fix style: nvt, fix ID: 4

# Negative deformation
variable delta equal -0.01*15.3172
variable deltaxy equal -0.01*xy
variable deltaxz equal -0.01*xz
variable deltayz equal -0.01*yz
change_box all x delta 0 -0.153172 xy delta 0.077318 xz delta -0.002463 remap units box
Changing box ...
  triclinic box = (0 0 0) to (15.164028 13.8463 18.3222) with tilt (-7.7318 0.2463 -0.1382)
  triclinic box = (0 0 0) to (15.164028 13.8463 18.3222) with tilt (-7.654482 0.2463 -0.1382)
  triclinic box = (0 0 0) to (15.164028 13.8463 18.3222) with tilt (-7.654482 0.243837 -0.1382)

# Run MD for Negative deformation
# save trajectory
dump dump_neg1 all custom 100 dump/neg_deform1.lammpstrj id type x y z
run 3000
All restart file global fix info was re-assigned
Step          Temp          PotEng         Press        f_avgp[1]        Volume
0   293.90336     -42584.303      52751.372      0              3847.0332
Averages over the last 16 of 31 rows, steps 1500 to 3000:
Temp PotEng Press f_avgp[1] Volume
301.406 -42644.8 887.838 -1371.15 3847.03
Loop time of 146.001 on 8 procs for 3000 steps with 365 atoms

undump dump_neg1

# Run equilibration
*****Equilibration neg1 starts.*****
include ff.mod.lmp
# Setup forcefield, system
# undefine any fix ave/* fix before using reset_timestep
if "$(is_defined(fix,avgp))" then "unfix avgp"
unfix avgp
reset_timestep 0

# Assign the force field
pair_style reaxff NULL safezone 3.0 mincap 150
# pair_coeff * * CHONSSi.ff O Si
# pair_coeff * * CHOSiNa.ff O Si
# pair_coeff * * SiOCHN_2018.ff O Si
# pair_coeff * * PDMSDecomp.ff Si O
pair_coeff * * CHONSi.ff C H O Si
# pair_coeff * * CHOFe.ff O Si

# charge method for reaxff
fix myqeq all qeq/reaxff 1 0.0 10.0 1.0e-6 reaxff maxiter 400
# Setup neighbor style
neighbor        2 bin
neigh_modify    every 10 delay 0 check no

# Setup output
fix avgp all ave/time  10 10 100 c_thermo_press mode vector
thermo		100
thermo_style custom step temp pe press f_avgp[1] vol
thermo_modify norm no

# NVT
fix 4 all nvt temp 300 300 50
run 3000
Step          Temp          PotEng         Press        f_avgp[1]        Volume
0   263.39212     -42625.093      9184.882       0              3847.0332
Averages over the last 16 of 31 rows, steps 1500 to 3000:
Temp PotEng Press f_avgp[1] Volume
300.821 -42643.1 4084.72 -246.652 3847.03
Loop time of 145.545 on 8 procs for 3000 steps with 365 atoms

# Obtain new stress tensor Negative deformation, convert index from LAMMPS to Voigt
variable pxx1 equal f_avgp[1]
variable pyy1 equal f_avgp[2]
variable pzz1 equal f_avgp[3]
variable pxy1 equal f_avgp[4]
variable pxz1 equal f_avgp[5]
variable pyz1 equal f_avgp[6]

# Compute elastic constant from pressure
# d1 = -[pxx1-pxx0]/[(]v_delta/v_len0] defined in input script
variable C1neg equal -0.0851262289271722
variable C2neg equal 83.0547488608385
variable C3neg equal 69.282965387514
variable C4neg equal -15.2554765680495
variable C5neg equal 8.28617019600888
variable C6neg equal -3.06390432683675

# Reset box and simulation parameters
clear
# box tilt large
read_restart equil.res
Reading restart file ...
  restart file = 2 Aug 2023, LAMMPS = 2 Aug 2023
  restoring atom style full from restart
  triclinic box = (0 0 0) to (15.3172 13.8463 18.3222) with tilt (-7.7318 0.2463 -0.1382)
  pair style reaxff stores no restart info
  365 atoms
Finding 1-2 1-3 1-4 neighbors ...
     0 = max # of 1-2 neighbors
     0 = max # of 1-3 neighbors
     0 = max # of 1-4 neighbors
     1 = max # of special neighbors
  read_restart CPU = 0.003 seconds
*****Positive-change 1 starts.*****
include ff.mod.lmp
# Setup forcefield, system
# undefine any fix ave/* fix before using reset_timestep
if "$(is_defined(fix,avgp))" then "unfix avgp"
reset_timestep 0

# Assign the force field
pair_style reaxff NULL safezone 3.0 mincap 150
# pair_coeff * * CHONSSi.ff O Si
# pair_coeff * * CHOSiNa.ff O Si
# pair_coeff * * SiOCHN_2018.ff O Si
# pair_coeff * * PDMSDecomp.ff Si O
pair_coeff * * CHONSi.ff C H O Si
# pair_coeff * * CHOFe.ff O Si

# charge method for reaxff
fix myqeq all qeq/reaxff 1 0.0 10.0 1.0e-6 reaxff maxiter 400
# Setup neighbor style
neighbor        2 bin
neigh_modify    every 10 delay 0 check no

# Setup output
fix avgp all ave/time  10 10 100 c_thermo_press mode vector
thermo		100
thermo_style custom step temp pe press f_avgp[1] vol
thermo_modify norm no

# NVT
fix 4 all nvt temp 300 300 50
  fix style: nvt, fix ID: 4

# Positive deformation
variable delta equal 0.01*15.3172
variable deltaxy equal 0.01*xy
variable deltaxz equal 0.01*xz
variable deltayz equal 0.01*yz
change_box all x delta 0 0.153172 xy delta -0.077318 xz delta 0.002463 remap units box
Changing box ...
  triclinic box = (0 0 0) to (15.470372 13.8463 18.3222) with tilt (-7.7318 0.2463 -0.1382)
  triclinic box = (0 0 0) to (15.470372 13.8463 18.3222) with tilt (-7.809118 0.2463 -0.1382)
  triclinic box = (0 0 0) to (15.470372 13.8463 18.3222) with tilt (-7.809118 0.248763 -0.1382)

# Run positive deformation MD
# save trajectory
dump dump_pos1 all custom 100 dump/pos_deform1.lammpstrj id type x y z
run 3000
All restart file global fix info was re-assigned
Step          Temp          PotEng         Press        f_avgp[1]        Volume
0   293.90336     -42582.318     -35961.34       0              3924.751
Averages over the last 16 of 31 rows, steps 1500 to 3000:
Temp PotEng Press f_avgp[1] Volume
303.305 -42634.5 -6121.52 -8662.73 3924.75
Loop time of 142.451 on 8 procs for 3000 steps with 365 atoms

undump dump_pos1

# Run equilibration
*****Equilibration pos1 starts.*****
include ff.mod.lmp
# Setup forcefield, system
# undefine any fix ave/* fix before using reset_timestep
if "$(is_defined(fix,avgp))" then "unfix avgp"
unfix avgp
reset_timestep 0

# Assign the force field
pair_style reaxff NULL safezone 3.0 mincap 150
# pair_coeff * * CHONSSi.ff O Si
# pair_coeff * * CHOSiNa.ff O Si
# pair_coeff * * SiOCHN_2018.ff O Si
# pair_coeff * * PDMSDecomp.ff Si O
pair_coeff * * CHONSi.ff C H O Si
# pair_coeff * * CHOFe.ff O Si

# charge method for reaxff
fix myqeq all qeq/reaxff 1 0.0 10.0 1.0e-6 reaxff maxiter 400
# Setup neighbor style
neighbor        2 bin
neigh_modify    every 10 delay 0 check no

# Setup output
fix avgp all ave/time  10 10 100 c_thermo_press mode vector
thermo		100
thermo_style custom step temp pe press f_avgp[1] vol
thermo_modify norm no

# NVT
fix 4 all nvt temp 300 300 50
run 3000
Step          Temp          PotEng         Press        f_avgp[1]        Volume
0   312.26943     -42637.046     -2053.448       0              3924.751
Averages over the last 16 of 31 rows, steps 1500 to 3000:
Temp PotEng Press f_avgp[1] Volume
303.021 -42633.2 -428.579 -8104.69 3924.75
Loop time of 142.015 on 8 procs for 3000 steps with 365 atoms

# Obtain new stress tensor, convert index from LAMMPS to Voigt
variable pxx1 equal f_avgp[1]
variable pyy1 equal f_avgp[2]
variable pzz1 equal f_avgp[3]
variable pxy1 equal f_avgp[4]
variable pxz1 equal f_avgp[5]
variable pyz1 equal f_avgp[6]

# Compute elastic constant from pressure tensor
# d1 = -[pxx1-pxx0]/[(]v_delta/v_len0] defined in input script
variable C1pos equal 53.8736646415898
variable C2pos equal -55.5574654083673
variable C3pos equal 17.6478183729783
variable C4pos equal -3.58147453064472
variable C5pos equal -19.2247180181223
variable C6pos equal -4.13483492578014

# Combine positive and negative
variable C11 equal 0.5*(-0.0851262289271722+53.8736646415898)
variable C21 equal 0.5*(83.0547488608385+-55.5574654083673)
variable C31 equal 0.5*(69.282965387514+17.6478183729783)
variable C41 equal 0.5*(-15.2554765680495+-3.58147453064472)
variable C51 equal 0.5*(8.28617019600888+-19.2247180181223)
variable C61 equal 0.5*(-3.06390432683675+-4.13483492578014)

# Delete dir to make sure it is not reused
variable dir delete
# uyy Perturbation
variable dir equal 2
include displace.mod.lmp
# Find which reference length to use
variable len0 equal 13.8463

# Reset box and simulation parameters
clear
# box tilt large
read_restart equil.res
Reading restart file ...
  restart file = 2 Aug 2023, LAMMPS = 2 Aug 2023
  restoring atom style full from restart
  triclinic box = (0 0 0) to (15.3172 13.8463 18.3222) with tilt (-7.7318 0.2463 -0.1382)
  pair style reaxff stores no restart info
  365 atoms
Finding 1-2 1-3 1-4 neighbors ...
     0 = max # of 1-2 neighbors
     0 = max # of 1-3 neighbors
     0 = max # of 1-4 neighbors
     1 = max # of special neighbors
  read_restart CPU = 0.003 seconds
*****Negative-change 2 starts.*****
include ff.mod.lmp
# Setup forcefield, system
# undefine any fix ave/* fix before using reset_timestep
if "$(is_defined(fix,avgp))" then "unfix avgp"
reset_timestep 0

# Assign the force field
pair_style reaxff NULL safezone 3.0 mincap 150
# pair_coeff * * CHONSSi.ff O Si
# pair_coeff * * CHOSiNa.ff O Si
# pair_coeff * * SiOCHN_2018.ff O Si
# pair_coeff * * PDMSDecomp.ff Si O
pair_coeff * * CHONSi.ff C H O Si
# pair_coeff * * CHOFe.ff O Si

# charge method for reaxff
fix myqeq all qeq/reaxff 1 0.0 10.0 1.0e-6 reaxff maxiter 400
# Setup neighbor style
neighbor        2 bin
neigh_modify    every 10 delay 0 check no

# Setup output
fix avgp all ave/time  10 10 100 c_thermo_press mode vector
thermo		100
thermo_style custom step temp pe press f_avgp[1] vol
thermo_modify norm no

# NVT
fix 4 all nvt temp 300 300 50
  fix style: nvt, fix ID: 4

# Negative deformation
variable delta equal -0.01*13.8463
variable deltaxy equal -0.01*xy
variable deltaxz equal -0.01*xz
variable deltayz equal -0.01*yz
change_box all y delta 0 -0.138463 yz delta 0.001382 remap units box
Changing box ...
  triclinic box = (0 0 0) to (15.3172 13.707837 18.3222) with tilt (-7.7318 0.2463 -0.1382)
  triclinic box = (0 0 0) to (15.3172 13.707837 18.3222) with tilt (-7.7318 0.2463 -0.136818)

# Run MD for Negative deformation
# save trajectory
dump dump_neg2 all custom 100 dump/neg_deform2.lammpstrj id type x y z
run 3000
All restart file global fix info was re-assigned
Step          Temp          PotEng         Press        f_avgp[1]        Volume
0   293.90336     -42582.449      53599.504      0              3847.0332
Averages over the last 16 of 31 rows, steps 1500 to 3000:
Temp PotEng Press f_avgp[1] Volume
305.028 -42642 -711.002 -4155.47 3847.03
Loop time of 145.411 on 8 procs for 3000 steps with 365 atoms

undump dump_neg2

# Run equilibration
*****Equilibration neg2 starts.*****
include ff.mod.lmp
# Setup forcefield, system
# undefine any fix ave/* fix before using reset_timestep
if "$(is_defined(fix,avgp))" then "unfix avgp"
unfix avgp
reset_timestep 0

# Assign the force field
pair_style reaxff NULL safezone 3.0 mincap 150
# pair_coeff * * CHONSSi.ff O Si
# pair_coeff * * CHOSiNa.ff O Si
# pair_coeff * * SiOCHN_2018.ff O Si
# pair_coeff * * PDMSDecomp.ff Si O
pair_coeff * * CHONSi.ff C H O Si
# pair_coeff * * CHOFe.ff O Si

# charge method for reaxff
fix myqeq all qeq/reaxff 1 0.0 10.0 1.0e-6 reaxff maxiter 400
# Setup neighbor style
neighbor        2 bin
neigh_modify    every 10 delay 0 check no

# Setup output
fix avgp all ave/time  10 10 100 c_thermo_press mode vector
thermo		100
thermo_style custom step temp pe press f_avgp[1] vol
thermo_modify norm no

# NVT
fix 4 all nvt temp 300 300 50
run 3000
Step          Temp          PotEng         Press        f_avgp[1]        Volume
0   292.12779     -42632.643      2359.3115      0              3847.0332
Averages over the last 16 of 31 rows, steps 1500 to 3000:
Temp PotEng Press f_avgp[1] Volume
294.697 -42649.9 3046.89 -3342.55 3847.03
Loop time of 144.925 on 8 procs for 3000 steps with 365 atoms

# Obtain new stress tensor Negative deformation, convert index from LAMMPS to Voigt
variable pxx1 equal f_avgp[1]
variable pyy1 equal f_avgp[2]
variable pzz1 equal f_avgp[3]
variable pxy1 equal f_avgp[4]
variable pxz1 equal f_avgp[5]
variable pyz1 equal f_avgp[6]

# Compute elastic constant from pressure
# d1 = -[pxx1-pxx0]/[(]v_delta/v_len0] defined in input script
variable C1neg equal -1.68296772628437
variable C2neg equal 83.7544874155042
variable C3neg equal -4.55009975115418
variable C4neg equal 0.545248614954615
variable C5neg equal 8.15124451641219
variable C6neg equal 2.86459567096229

# Reset box and simulation parameters
clear
# box tilt large
read_restart equil.res
Reading restart file ...
  restart file = 2 Aug 2023, LAMMPS = 2 Aug 2023
  restoring atom style full from restart
  triclinic box = (0 0 0) to (15.3172 13.8463 18.3222) with tilt (-7.7318 0.2463 -0.1382)
  pair style reaxff stores no restart info
  365 atoms
Finding 1-2 1-3 1-4 neighbors ...
     0 = max # of 1-2 neighbors
     0 = max # of 1-3 neighbors
     0 = max # of 1-4 neighbors
     1 = max # of special neighbors
  read_restart CPU = 0.003 seconds
*****Positive-change 2 starts.*****
include ff.mod.lmp
# Setup forcefield, system
# undefine any fix ave/* fix before using reset_timestep
if "$(is_defined(fix,avgp))" then "unfix avgp"
reset_timestep 0

# Assign the force field
pair_style reaxff NULL safezone 3.0 mincap 150
# pair_coeff * * CHONSSi.ff O Si
# pair_coeff * * CHOSiNa.ff O Si
# pair_coeff * * SiOCHN_2018.ff O Si
# pair_coeff * * PDMSDecomp.ff Si O
pair_coeff * * CHONSi.ff C H O Si
# pair_coeff * * CHOFe.ff O Si

# charge method for reaxff
fix myqeq all qeq/reaxff 1 0.0 10.0 1.0e-6 reaxff maxiter 400
# Setup neighbor style
neighbor        2 bin
neigh_modify    every 10 delay 0 check no

# Setup output
fix avgp all ave/time  10 10 100 c_thermo_press mode vector
thermo		100
thermo_style custom step temp pe press f_avgp[1] vol
thermo_modify norm no

# NVT
fix 4 all nvt temp 300 300 50
  fix style: nvt, fix ID: 4

# Positive deformation
variable delta equal 0.01*13.8463
variable deltaxy equal 0.01*xy
variable deltaxz equal 0.01*xz
variable deltayz equal 0.01*yz
change_box all y delta 0 0.138463 yz delta -0.001382 remap units box
Changing box ...
  triclinic box = (0 0 0) to (15.3172 13.984763 18.3222) with tilt (-7.7318 0.2463 -0.1382)
  triclinic box = (0 0 0) to (15.3172 13.984763 18.3222) with tilt (-7.7318 0.2463 -0.139582)

# Run positive deformation MD
# save trajectory
dump dump_pos2 all custom 100 dump/pos_deform2.lammpstrj id type x y z
run 3000
All restart file global fix info was re-assigned
Step          Temp          PotEng         Press        f_avgp[1]        Volume
0   293.90336     -42581.186     -38761.328      0              3924.751
Averages over the last 16 of 31 rows, steps 1500 to 3000:
Temp PotEng Press f_avgp[1] Volume
299.105 -42635.5 -1456.96 -4421.25 3924.75
Loop time of 141.177 on 8 procs for 3000 steps with 365 atoms

undump dump_pos2

# Run equilibration
*****Equilibration pos2 starts.*****
include ff.mod.lmp
# Setup forcefield, system
# undefine any fix ave/* fix before using reset_timestep
if "$(is_defined(fix,avgp))" then "unfix avgp"
unfix avgp
reset_timestep 0

# Assign the force field
pair_style reaxff NULL safezone 3.0 mincap 150
# pair_coeff * * CHONSSi.ff O Si
# pair_coeff * * CHOSiNa.ff O Si
# pair_coeff * * SiOCHN_2018.ff O Si
# pair_coeff * * PDMSDecomp.ff Si O
pair_coeff * * CHONSi.ff C H O Si
# pair_coeff * * CHOFe.ff O Si

# charge method for reaxff
fix myqeq all qeq/reaxff 1 0.0 10.0 1.0e-6 reaxff maxiter 400
# Setup neighbor style
neighbor        2 bin
neigh_modify    every 10 delay 0 check no

# Setup output
fix avgp all ave/time  10 10 100 c_thermo_press mode vector
thermo		100
thermo_style custom step temp pe press f_avgp[1] vol
thermo_modify norm no

# NVT
fix 4 all nvt temp 300 300 50
run 3000
Step          Temp          PotEng         Press        f_avgp[1]        Volume
0   288.68587     -42643.289      1934.2783      0              3924.751
Averages over the last 16 of 31 rows, steps 1500 to 3000:
Temp PotEng Press f_avgp[1] Volume
300.959 -42633.9 -2789.21 -6323.43 3924.75
Loop time of 141.426 on 8 procs for 3000 steps with 365 atoms

# Obtain new stress tensor, convert index from LAMMPS to Voigt
variable pxx1 equal f_avgp[1]
variable pyy1 equal f_avgp[2]
variable pzz1 equal f_avgp[3]
variable pxy1 equal f_avgp[4]
variable pxz1 equal f_avgp[5]
variable pyz1 equal f_avgp[6]

# Compute elastic constant from pressure tensor
# d1 = -[pxx1-pxx0]/[(]v_delta/v_len0] defined in input script
variable C1pos equal 76.4411586069604
variable C2pos equal 9.92629781111254
variable C3pos equal 55.2429260237163
variable C4pos equal 18.123648877825
variable C5pos equal -25.4154846183958
variable C6pos equal -6.23437593820721

# Combine positive and negative
variable C12 equal 0.5*(-1.68296772628437+76.4411586069604)
variable C22 equal 0.5*(83.7544874155042+9.92629781111254)
variable C32 equal 0.5*(-4.55009975115418+55.2429260237163)
variable C42 equal 0.5*(0.545248614954615+18.123648877825)
variable C52 equal 0.5*(8.15124451641219+-25.4154846183958)
variable C62 equal 0.5*(2.86459567096229+-6.23437593820721)

# Delete dir to make sure it is not reused
variable dir delete
# uzz Perturbation
variable dir equal 3
include displace.mod.lmp
# Find which reference length to use
variable len0 equal 18.3222

# Reset box and simulation parameters
clear
# box tilt large
read_restart equil.res
Reading restart file ...
  restart file = 2 Aug 2023, LAMMPS = 2 Aug 2023
  restoring atom style full from restart
  triclinic box = (0 0 0) to (15.3172 13.8463 18.3222) with tilt (-7.7318 0.2463 -0.1382)
  pair style reaxff stores no restart info
  365 atoms
Finding 1-2 1-3 1-4 neighbors ...
     0 = max # of 1-2 neighbors
     0 = max # of 1-3 neighbors
     0 = max # of 1-4 neighbors
     1 = max # of special neighbors
  read_restart CPU = 0.003 seconds
*****Negative-change 3 starts.*****
include ff.mod.lmp
# Setup forcefield, system
# undefine any fix ave/* fix before using reset_timestep
if "$(is_defined(fix,avgp))" then "unfix avgp"
reset_timestep 0

# Assign the force field
pair_style reaxff NULL safezone 3.0 mincap 150
# pair_coeff * * CHONSSi.ff O Si
# pair_coeff * * CHOSiNa.ff O Si
# pair_coeff * * SiOCHN_2018.ff O Si
# pair_coeff * * PDMSDecomp.ff Si O
pair_coeff * * CHONSi.ff C H O Si
# pair_coeff * * CHOFe.ff O Si

# charge method for reaxff
fix myqeq all qeq/reaxff 1 0.0 10.0 1.0e-6 reaxff maxiter 400
# Setup neighbor style
neighbor        2 bin
neigh_modify    every 10 delay 0 check no

# Setup output
fix avgp all ave/time  10 10 100 c_thermo_press mode vector
thermo		100
thermo_style custom step temp pe press f_avgp[1] vol
thermo_modify norm no

# NVT
fix 4 all nvt temp 300 300 50
  fix style: nvt, fix ID: 4

# Negative deformation
variable delta equal -0.01*18.3222
variable deltaxy equal -0.01*xy
variable deltaxz equal -0.01*xz
variable deltayz equal -0.01*yz
change_box all z delta 0 -0.183222 remap units box
Changing box ...
  triclinic box = (0 0 0) to (15.3172 13.8463 18.138978) with tilt (-7.7318 0.2463 -0.1382)

# Run MD for Negative deformation
# save trajectory
dump dump_neg3 all custom 100 dump/neg_deform3.lammpstrj id type x y z
run 3000
All restart file global fix info was re-assigned
Step          Temp          PotEng         Press        f_avgp[1]        Volume
0   293.90336     -42573.999      58986.705      0              3847.0332
Averages over the last 16 of 31 rows, steps 1500 to 3000:
Temp PotEng Press f_avgp[1] Volume
301.312 -42648.2 -1642.59 -2723.72 3847.03
Loop time of 145.315 on 8 procs for 3000 steps with 365 atoms

undump dump_neg3

# Run equilibration
*****Equilibration neg3 starts.*****
include ff.mod.lmp
# Setup forcefield, system
# undefine any fix ave/* fix before using reset_timestep
if "$(is_defined(fix,avgp))" then "unfix avgp"
unfix avgp
reset_timestep 0

# Assign the force field
pair_style reaxff NULL safezone 3.0 mincap 150
# pair_coeff * * CHONSSi.ff O Si
# pair_coeff * * CHOSiNa.ff O Si
# pair_coeff * * SiOCHN_2018.ff O Si
# pair_coeff * * PDMSDecomp.ff Si O
pair_coeff * * CHONSi.ff C H O Si
# pair_coeff * * CHOFe.ff O Si

# charge method for reaxff
fix myqeq all qeq/reaxff 1 0.0 10.0 1.0e-6 reaxff maxiter 400
# Setup neighbor style
neighbor        2 bin
neigh_modify    every 10 delay 0 check no

# Setup output
fix avgp all ave/time  10 10 100 c_thermo_press mode vector
thermo		100
thermo_style custom step temp pe press f_avgp[1] vol
thermo_modify norm no

# NVT
fix 4 all nvt temp 300 300 50
run 3000
Step          Temp          PotEng         Press        f_avgp[1]        Volume
0   308.74116     -42649.846     -3416.2818      0              3847.0332
Averages over the last 16 of 31 rows, steps 1500 to 3000:
Temp PotEng Press f_avgp[1] Volume
298.998 -42650.7 1173.46 -3683.22 3847.03
Loop time of 145.485 on 8 procs for 3000 steps with 365 atoms

# Obtain new stress tensor Negative deformation, convert index from LAMMPS to Voigt
variable pxx1 equal f_avgp[1]
variable pyy1 equal f_avgp[2]
variable pzz1 equal f_avgp[3]
variable pxy1 equal f_avgp[4]
variable pxz1 equal f_avgp[5]
variable pyz1 equal f_avgp[6]

# Compute elastic constant from pressure
# d1 = -[pxx1-pxx0]/[(]v_delta/v_len0] defined in input script
variable C1neg equal 4.82544512257655
variable C2neg equal 58.145541047865
variable C3neg equal 70.2499498158451
variable C4neg equal 3.51880731309386
variable C5neg equal 15.7020582265162
variable C6neg equal 2.92925231908852

# Reset box and simulation parameters
clear
# box tilt large
read_restart equil.res
Reading restart file ...
  restart file = 2 Aug 2023, LAMMPS = 2 Aug 2023
  restoring atom style full from restart
  triclinic box = (0 0 0) to (15.3172 13.8463 18.3222) with tilt (-7.7318 0.2463 -0.1382)
  pair style reaxff stores no restart info
  365 atoms
Finding 1-2 1-3 1-4 neighbors ...
     0 = max # of 1-2 neighbors
     0 = max # of 1-3 neighbors
     0 = max # of 1-4 neighbors
     1 = max # of special neighbors
  read_restart CPU = 0.004 seconds
*****Positive-change 3 starts.*****
include ff.mod.lmp
# Setup forcefield, system
# undefine any fix ave/* fix before using reset_timestep
if "$(is_defined(fix,avgp))" then "unfix avgp"
reset_timestep 0

# Assign the force field
pair_style reaxff NULL safezone 3.0 mincap 150
# pair_coeff * * CHONSSi.ff O Si
# pair_coeff * * CHOSiNa.ff O Si
# pair_coeff * * SiOCHN_2018.ff O Si
# pair_coeff * * PDMSDecomp.ff Si O
pair_coeff * * CHONSi.ff C H O Si
# pair_coeff * * CHOFe.ff O Si

# charge method for reaxff
fix myqeq all qeq/reaxff 1 0.0 10.0 1.0e-6 reaxff maxiter 400
# Setup neighbor style
neighbor        2 bin
neigh_modify    every 10 delay 0 check no

# Setup output
fix avgp all ave/time  10 10 100 c_thermo_press mode vector
thermo		100
thermo_style custom step temp pe press f_avgp[1] vol
thermo_modify norm no

# NVT
fix 4 all nvt temp 300 300 50
  fix style: nvt, fix ID: 4

# Positive deformation
variable delta equal 0.01*18.3222
variable deltaxy equal 0.01*xy
variable deltaxz equal 0.01*xz
variable deltayz equal 0.01*yz
change_box all z delta 0 0.183222 remap units box
Changing box ...
  triclinic box = (0 0 0) to (15.3172 13.8463 18.505422) with tilt (-7.7318 0.2463 -0.1382)

# Run positive deformation MD
# save trajectory
dump dump_pos3 all custom 100 dump/pos_deform3.lammpstrj id type x y z
run 3000
All restart file global fix info was re-assigned
Step          Temp          PotEng         Press        f_avgp[1]        Volume
0   293.90336     -42586.016     -41633.95       0              3924.751
Averages over the last 16 of 31 rows, steps 1500 to 3000:
Temp PotEng Press f_avgp[1] Volume
298.465 -42644.8 -6319.68 -8445.99 3924.75
Loop time of 141.223 on 8 procs for 3000 steps with 365 atoms

undump dump_pos3

# Run equilibration
*****Equilibration pos3 starts.*****
include ff.mod.lmp
# Setup forcefield, system
# undefine any fix ave/* fix before using reset_timestep
if "$(is_defined(fix,avgp))" then "unfix avgp"
unfix avgp
reset_timestep 0

# Assign the force field
pair_style reaxff NULL safezone 3.0 mincap 150
# pair_coeff * * CHONSSi.ff O Si
# pair_coeff * * CHOSiNa.ff O Si
# pair_coeff * * SiOCHN_2018.ff O Si
# pair_coeff * * PDMSDecomp.ff Si O
pair_coeff * * CHONSi.ff C H O Si
# pair_coeff * * CHOFe.ff O Si

# charge method for reaxff
fix myqeq all qeq/reaxff 1 0.0 10.0 1.0e-6 reaxff maxiter 400
# Setup neighbor style
neighbor        2 bin
neigh_modify    every 10 delay 0 check no

# Setup output
fix avgp all ave/time  10 10 100 c_thermo_press mode vector
thermo		100
thermo_style custom step temp pe press f_avgp[1] vol
thermo_modify norm no

# NVT
fix 4 all nvt temp 300 300 50
run 3000
Step          Temp          PotEng         Press        f_avgp[1]        Volume
0   296.13638     -42669.146      3179.9377      0              3924.751
Averages over the last 16 of 31 rows, steps 1500 to 3000:
Temp PotEng Press f_avgp[1] Volume
298.299 -42638.9 -918.188 -4921.22 3924.75
Loop time of 141.387 on 8 procs for 3000 steps with 365 atoms

# Obtain new stress tensor, convert index from LAMMPS to Voigt
variable pxx1 equal f_avgp[1]
variable pyy1 equal f_avgp[2]
variable pzz1 equal f_avgp[3]
variable pxy1 equal f_avgp[4]
variable pxz1 equal f_avgp[5]
variable pyz1 equal f_avgp[6]

# Compute elastic constant from pressure tensor
# d1 = -[pxx1-pxx0]/[(]v_delta/v_len0] defined in input script
variable C1pos equal -1.06938913229537
variable C2pos equal -60.1267669615489
variable C3pos equal 40.6793853083085
variable C4pos equal -12.7818908533971
variable C5pos equal -16.0845783106684
variable C6pos equal -2.66706738564981

# Combine positive and negative
variable C13 equal 0.5*(4.82544512257655+-1.06938913229537)
variable C23 equal 0.5*(58.145541047865+-60.1267669615489)
variable C33 equal 0.5*(70.2499498158451+40.6793853083085)
variable C43 equal 0.5*(3.51880731309386+-12.7818908533971)
variable C53 equal 0.5*(15.7020582265162+-16.0845783106684)
variable C63 equal 0.5*(2.92925231908852+-2.66706738564981)

# Delete dir to make sure it is not reused
variable dir delete
# uyz Perturbation
variable dir equal 4
include displace.mod.lmp
# Find which reference length to use
variable len0 equal 18.3222

# Reset box and simulation parameters
clear
# box tilt large
read_restart equil.res
Reading restart file ...
  restart file = 2 Aug 2023, LAMMPS = 2 Aug 2023
  restoring atom style full from restart
  triclinic box = (0 0 0) to (15.3172 13.8463 18.3222) with tilt (-7.7318 0.2463 -0.1382)
  pair style reaxff stores no restart info
  365 atoms
Finding 1-2 1-3 1-4 neighbors ...
     0 = max # of 1-2 neighbors
     0 = max # of 1-3 neighbors
     0 = max # of 1-4 neighbors
     1 = max # of special neighbors
  read_restart CPU = 0.003 seconds
*****Negative-change 4 starts.*****
include ff.mod.lmp
# Setup forcefield, system
# undefine any fix ave/* fix before using reset_timestep
if "$(is_defined(fix,avgp))" then "unfix avgp"
reset_timestep 0

# Assign the force field
pair_style reaxff NULL safezone 3.0 mincap 150
# pair_coeff * * CHONSSi.ff O Si
# pair_coeff * * CHOSiNa.ff O Si
# pair_coeff * * SiOCHN_2018.ff O Si
# pair_coeff * * PDMSDecomp.ff Si O
pair_coeff * * CHONSi.ff C H O Si
# pair_coeff * * CHOFe.ff O Si

# charge method for reaxff
fix myqeq all qeq/reaxff 1 0.0 10.0 1.0e-6 reaxff maxiter 400
# Setup neighbor style
neighbor        2 bin
neigh_modify    every 10 delay 0 check no

# Setup output
fix avgp all ave/time  10 10 100 c_thermo_press mode vector
thermo		100
thermo_style custom step temp pe press f_avgp[1] vol
thermo_modify norm no

# NVT
fix 4 all nvt temp 300 300 50
  fix style: nvt, fix ID: 4

# Negative deformation
variable delta equal -0.01*18.3222
variable deltaxy equal -0.01*xy
variable deltaxz equal -0.01*xz
variable deltayz equal -0.01*yz
change_box all yz delta -0.183222 remap units box
Changing box ...
  triclinic box = (0 0 0) to (15.3172 13.8463 18.3222) with tilt (-7.7318 0.2463 -0.321422)

# Run MD for Negative deformation
# save trajectory
dump dump_neg4 all custom 100 dump/neg_deform4.lammpstrj id type x y z
run 3000
All restart file global fix info was re-assigned
Step          Temp          PotEng         Press        f_avgp[1]        Volume
0   293.90336     -42594.633      4700.0921      0              3885.8921
Averages over the last 16 of 31 rows, steps 1500 to 3000:
Temp PotEng Press f_avgp[1] Volume
299.047 -42638.4 -1900.14 -6387.47 3885.89
Loop time of 143.222 on 8 procs for 3000 steps with 365 atoms

undump dump_neg4

# Run equilibration
*****Equilibration neg4 starts.*****
include ff.mod.lmp
# Setup forcefield, system
# undefine any fix ave/* fix before using reset_timestep
if "$(is_defined(fix,avgp))" then "unfix avgp"
unfix avgp
reset_timestep 0

# Assign the force field
pair_style reaxff NULL safezone 3.0 mincap 150
# pair_coeff * * CHONSSi.ff O Si
# pair_coeff * * CHOSiNa.ff O Si
# pair_coeff * * SiOCHN_2018.ff O Si
# pair_coeff * * PDMSDecomp.ff Si O
pair_coeff * * CHONSi.ff C H O Si
# pair_coeff * * CHOFe.ff O Si

# charge method for reaxff
fix myqeq all qeq/reaxff 1 0.0 10.0 1.0e-6 reaxff maxiter 400
# Setup neighbor style
neighbor        2 bin
neigh_modify    every 10 delay 0 check no

# Setup output
fix avgp all ave/time  10 10 100 c_thermo_press mode vector
thermo		100
thermo_style custom step temp pe press f_avgp[1] vol
thermo_modify norm no

# NVT
fix 4 all nvt temp 300 300 50
run 3000
Step          Temp          PotEng         Press        f_avgp[1]        Volume
0   291.69504     -42634.508     -7735.5335      0              3885.8921
Averages over the last 16 of 31 rows, steps 1500 to 3000:
Temp PotEng Press f_avgp[1] Volume
303.967 -42632.7 551.508 -5245.88 3885.89
Loop time of 143.902 on 8 procs for 3000 steps with 365 atoms

# Obtain new stress tensor Negative deformation, convert index from LAMMPS to Voigt
variable pxx1 equal f_avgp[1]
variable pyy1 equal f_avgp[2]
variable pzz1 equal f_avgp[3]
variable pxy1 equal f_avgp[4]
variable pxz1 equal f_avgp[5]
variable pyz1 equal f_avgp[6]

# Compute elastic constant from pressure
# d1 = -[pxx1-pxx0]/[(]v_delta/v_len0] defined in input script
variable C1neg equal -35.8084596553709
variable C2neg equal 55.4175487170451
variable C3neg equal -27.6357227717663
variable C4neg equal 13.0387799439847
variable C5neg equal 14.2526500611822
variable C6neg equal 6.41522364081733

# Reset box and simulation parameters
clear
# box tilt large
read_restart equil.res
Reading restart file ...
  restart file = 2 Aug 2023, LAMMPS = 2 Aug 2023
  restoring atom style full from restart
  triclinic box = (0 0 0) to (15.3172 13.8463 18.3222) with tilt (-7.7318 0.2463 -0.1382)
  pair style reaxff stores no restart info
  365 atoms
Finding 1-2 1-3 1-4 neighbors ...
     0 = max # of 1-2 neighbors
     0 = max # of 1-3 neighbors
     0 = max # of 1-4 neighbors
     1 = max # of special neighbors
  read_restart CPU = 0.003 seconds
*****Positive-change 4 starts.*****
include ff.mod.lmp
# Setup forcefield, system
# undefine any fix ave/* fix before using reset_timestep
if "$(is_defined(fix,avgp))" then "unfix avgp"
reset_timestep 0

# Assign the force field
pair_style reaxff NULL safezone 3.0 mincap 150
# pair_coeff * * CHONSSi.ff O Si
# pair_coeff * * CHOSiNa.ff O Si
# pair_coeff * * SiOCHN_2018.ff O Si
# pair_coeff * * PDMSDecomp.ff Si O
pair_coeff * * CHONSi.ff C H O Si
# pair_coeff * * CHOFe.ff O Si

# charge method for reaxff
fix myqeq all qeq/reaxff 1 0.0 10.0 1.0e-6 reaxff maxiter 400
# Setup neighbor style
neighbor        2 bin
neigh_modify    every 10 delay 0 check no

# Setup output
fix avgp all ave/time  10 10 100 c_thermo_press mode vector
thermo		100
thermo_style custom step temp pe press f_avgp[1] vol
thermo_modify norm no

# NVT
fix 4 all nvt temp 300 300 50
  fix style: nvt, fix ID: 4

# Positive deformation
variable delta equal 0.01*18.3222
variable deltaxy equal 0.01*xy
variable deltaxz equal 0.01*xz
variable deltayz equal 0.01*yz
change_box all yz delta 0.183222 remap units box
Changing box ...
  triclinic box = (0 0 0) to (15.3172 13.8463 18.3222) with tilt (-7.7318 0.2463 0.045022)

# Run positive deformation MD
# save trajectory
dump dump_pos4 all custom 100 dump/pos_deform4.lammpstrj id type x y z
run 3000
All restart file global fix info was re-assigned
Step          Temp          PotEng         Press        f_avgp[1]        Volume
0   293.90336     -42597.92       7749.4869      0              3885.8921
Averages over the last 16 of 31 rows, steps 1500 to 3000:
Temp PotEng Press f_avgp[1] Volume
295.569 -42648.6 674.806 -4026.6 3885.89
Loop time of 143.674 on 8 procs for 3000 steps with 365 atoms

undump dump_pos4

# Run equilibration
*****Equilibration pos4 starts.*****
include ff.mod.lmp
# Setup forcefield, system
# undefine any fix ave/* fix before using reset_timestep
if "$(is_defined(fix,avgp))" then "unfix avgp"
unfix avgp
reset_timestep 0

# Assign the force field
pair_style reaxff NULL safezone 3.0 mincap 150
# pair_coeff * * CHONSSi.ff O Si
# pair_coeff * * CHOSiNa.ff O Si
# pair_coeff * * SiOCHN_2018.ff O Si
# pair_coeff * * PDMSDecomp.ff Si O
pair_coeff * * CHONSi.ff C H O Si
# pair_coeff * * CHOFe.ff O Si

# charge method for reaxff
fix myqeq all qeq/reaxff 1 0.0 10.0 1.0e-6 reaxff maxiter 400
# Setup neighbor style
neighbor        2 bin
neigh_modify    every 10 delay 0 check no

# Setup output
fix avgp all ave/time  10 10 100 c_thermo_press mode vector
thermo		100
thermo_style custom step temp pe press f_avgp[1] vol
thermo_modify norm no

# NVT
fix 4 all nvt temp 300 300 50
run 3000
Step          Temp          PotEng         Press        f_avgp[1]        Volume
0   278.78519     -42631.272      1869.7068      0              3885.8921
Averages over the last 16 of 31 rows, steps 1500 to 3000:
Temp PotEng Press f_avgp[1] Volume
307.122 -42633.9 2129.73 -4525.39 3885.89
Loop time of 144.307 on 8 procs for 3000 steps with 365 atoms

# Obtain new stress tensor, convert index from LAMMPS to Voigt
variable pxx1 equal f_avgp[1]
variable pyy1 equal f_avgp[2]
variable pzz1 equal f_avgp[3]
variable pxy1 equal f_avgp[4]
variable pxz1 equal f_avgp[5]
variable pyz1 equal f_avgp[6]

# Compute elastic constant from pressure tensor
# d1 = -[pxx1-pxx0]/[(]v_delta/v_len0] defined in input script
variable C1pos equal 83.8529873955796
variable C2pos equal -40.6721706690531
variable C3pos equal 18.8137577003099
variable C4pos equal 7.90007581018836
variable C5pos equal -13.7001383569232
variable C6pos equal -3.58038977176215

# Combine positive and negative
variable C14 equal 0.5*(-35.8084596553709+83.8529873955796)
variable C24 equal 0.5*(55.4175487170451+-40.6721706690531)
variable C34 equal 0.5*(-27.6357227717663+18.8137577003099)
variable C44 equal 0.5*(13.0387799439847+7.90007581018836)
variable C54 equal 0.5*(14.2526500611822+-13.7001383569232)
variable C64 equal 0.5*(6.41522364081733+-3.58038977176215)

# Delete dir to make sure it is not reused
variable dir delete
# uxz Perturbation
variable dir equal 5
include displace.mod.lmp
# Find which reference length to use
variable len0 equal 18.3222

# Reset box and simulation parameters
clear
# box tilt large
read_restart equil.res
Reading restart file ...
  restart file = 2 Aug 2023, LAMMPS = 2 Aug 2023
  restoring atom style full from restart
  triclinic box = (0 0 0) to (15.3172 13.8463 18.3222) with tilt (-7.7318 0.2463 -0.1382)
  pair style reaxff stores no restart info
  365 atoms
Finding 1-2 1-3 1-4 neighbors ...
     0 = max # of 1-2 neighbors
     0 = max # of 1-3 neighbors
     0 = max # of 1-4 neighbors
     1 = max # of special neighbors
  read_restart CPU = 0.003 seconds
*****Negative-change 5 starts.*****
include ff.mod.lmp
# Setup forcefield, system
# undefine any fix ave/* fix before using reset_timestep
if "$(is_defined(fix,avgp))" then "unfix avgp"
reset_timestep 0

# Assign the force field
pair_style reaxff NULL safezone 3.0 mincap 150
# pair_coeff * * CHONSSi.ff O Si
# pair_coeff * * CHOSiNa.ff O Si
# pair_coeff * * SiOCHN_2018.ff O Si
# pair_coeff * * PDMSDecomp.ff Si O
pair_coeff * * CHONSi.ff C H O Si
# pair_coeff * * CHOFe.ff O Si

# charge method for reaxff
fix myqeq all qeq/reaxff 1 0.0 10.0 1.0e-6 reaxff maxiter 400
# Setup neighbor style
neighbor        2 bin
neigh_modify    every 10 delay 0 check no

# Setup output
fix avgp all ave/time  10 10 100 c_thermo_press mode vector
thermo		100
thermo_style custom step temp pe press f_avgp[1] vol
thermo_modify norm no

# NVT
fix 4 all nvt temp 300 300 50
  fix style: nvt, fix ID: 4

# Negative deformation
variable delta equal -0.01*18.3222
variable deltaxy equal -0.01*xy
variable deltaxz equal -0.01*xz
variable deltayz equal -0.01*yz
change_box all xz delta -0.183222 remap units box
Changing box ...
  triclinic box = (0 0 0) to (15.3172 13.8463 18.3222) with tilt (-7.7318 0.063078 -0.1382)

# Run MD for Negative deformation
# save trajectory
dump dump_neg5 all custom 100 dump/neg_deform5.lammpstrj id type x y z
run 3000
All restart file global fix info was re-assigned
Step          Temp          PotEng         Press        f_avgp[1]        Volume
0   293.90336     -42600.105      5909.4703      0              3885.8921
Averages over the last 16 of 31 rows, steps 1500 to 3000:
Temp PotEng Press f_avgp[1] Volume
303.863 -42638.6 -2027.67 -5977.82 3885.89
Loop time of 142.604 on 8 procs for 3000 steps with 365 atoms

undump dump_neg5

# Run equilibration
*****Equilibration neg5 starts.*****
include ff.mod.lmp
# Setup forcefield, system
# undefine any fix ave/* fix before using reset_timestep
if "$(is_defined(fix,avgp))" then "unfix avgp"
unfix avgp
reset_timestep 0

# Assign the force field
pair_style reaxff NULL safezone 3.0 mincap 150
# pair_coeff * * CHONSSi.ff O Si
# pair_coeff * * CHOSiNa.ff O Si
# pair_coeff * * SiOCHN_2018.ff O Si
# pair_coeff * * PDMSDecomp.ff Si O
pair_coeff * * CHONSi.ff C H O Si
# pair_coeff * * CHOFe.ff O Si

# charge method for reaxff
fix myqeq all qeq/reaxff 1 0.0 10.0 1.0e-6 reaxff maxiter 400
# Setup neighbor style
neighbor        2 bin
neigh_modify    every 10 delay 0 check no

# Setup output
fix avgp all ave/time  10 10 100 c_thermo_press mode vector
thermo		100
thermo_style custom step temp pe press f_avgp[1] vol
thermo_modify norm no

# NVT
fix 4 all nvt temp 300 300 50
run 3000
Step          Temp          PotEng         Press        f_avgp[1]        Volume
0   316.8913      -42650.929     -2.7291981      0              3885.8921
Averages over the last 16 of 31 rows, steps 1500 to 3000:
Temp PotEng Press f_avgp[1] Volume
300.355 -42643.7 -1734.41 -4168.46 3885.89
Loop time of 141.594 on 8 procs for 3000 steps with 365 atoms

# Obtain new stress tensor Negative deformation, convert index from LAMMPS to Voigt
variable pxx1 equal f_avgp[1]
variable pyy1 equal f_avgp[2]
variable pzz1 equal f_avgp[3]
variable pxy1 equal f_avgp[4]
variable pxz1 equal f_avgp[5]
variable pyz1 equal f_avgp[6]

# Compute elastic constant from pressure
# d1 = -[pxx1-pxx0]/[(]v_delta/v_len0] defined in input script
variable C1neg equal -73.3263475386706
variable C2neg equal 29.0019164806767
variable C3neg equal -26.2554434017829
variable C4neg equal 7.90104494133528
variable C5neg equal 24.8347134075086
variable C6neg equal -11.1619691762377

# Reset box and simulation parameters
clear
# box tilt large
read_restart equil.res
Reading restart file ...
  restart file = 2 Aug 2023, LAMMPS = 2 Aug 2023
  restoring atom style full from restart
  triclinic box = (0 0 0) to (15.3172 13.8463 18.3222) with tilt (-7.7318 0.2463 -0.1382)
  pair style reaxff stores no restart info
  365 atoms
Finding 1-2 1-3 1-4 neighbors ...
     0 = max # of 1-2 neighbors
     0 = max # of 1-3 neighbors
     0 = max # of 1-4 neighbors
     1 = max # of special neighbors
  read_restart CPU = 0.003 seconds
*****Positive-change 5 starts.*****
include ff.mod.lmp
# Setup forcefield, system
# undefine any fix ave/* fix before using reset_timestep
if "$(is_defined(fix,avgp))" then "unfix avgp"
reset_timestep 0

# Assign the force field
pair_style reaxff NULL safezone 3.0 mincap 150
# pair_coeff * * CHONSSi.ff O Si
# pair_coeff * * CHOSiNa.ff O Si
# pair_coeff * * SiOCHN_2018.ff O Si
# pair_coeff * * PDMSDecomp.ff Si O
pair_coeff * * CHONSi.ff C H O Si
# pair_coeff * * CHOFe.ff O Si

# charge method for reaxff
fix myqeq all qeq/reaxff 1 0.0 10.0 1.0e-6 reaxff maxiter 400
# Setup neighbor style
neighbor        2 bin
neigh_modify    every 10 delay 0 check no

# Setup output
fix avgp all ave/time  10 10 100 c_thermo_press mode vector
thermo		100
thermo_style custom step temp pe press f_avgp[1] vol
thermo_modify norm no

# NVT
fix 4 all nvt temp 300 300 50
  fix style: nvt, fix ID: 4

# Positive deformation
variable delta equal 0.01*18.3222
variable deltaxy equal 0.01*xy
variable deltaxz equal 0.01*xz
variable deltayz equal 0.01*yz
change_box all xz delta 0.183222 remap units box
Changing box ...
  triclinic box = (0 0 0) to (15.3172 13.8463 18.3222) with tilt (-7.7318 0.429522 -0.1382)

# Run positive deformation MD
# save trajectory
dump dump_pos5 all custom 100 dump/pos_deform5.lammpstrj id type x y z
run 3000
All restart file global fix info was re-assigned
Step          Temp          PotEng         Press        f_avgp[1]        Volume
0   293.90336     -42591.955      6372.6454      0              3885.8921
Averages over the last 16 of 31 rows, steps 1500 to 3000:
Temp PotEng Press f_avgp[1] Volume
300.107 -42634.2 -2528.78 -5298.64 3885.89
Loop time of 142.626 on 8 procs for 3000 steps with 365 atoms

undump dump_pos5

# Run equilibration
*****Equilibration pos5 starts.*****
include ff.mod.lmp
# Setup forcefield, system
# undefine any fix ave/* fix before using reset_timestep
if "$(is_defined(fix,avgp))" then "unfix avgp"
unfix avgp
reset_timestep 0

# Assign the force field
pair_style reaxff NULL safezone 3.0 mincap 150
# pair_coeff * * CHONSSi.ff O Si
# pair_coeff * * CHOSiNa.ff O Si
# pair_coeff * * SiOCHN_2018.ff O Si
# pair_coeff * * PDMSDecomp.ff Si O
pair_coeff * * CHONSi.ff C H O Si
# pair_coeff * * CHOFe.ff O Si

# charge method for reaxff
fix myqeq all qeq/reaxff 1 0.0 10.0 1.0e-6 reaxff maxiter 400
# Setup neighbor style
neighbor        2 bin
neigh_modify    every 10 delay 0 check no

# Setup output
fix avgp all ave/time  10 10 100 c_thermo_press mode vector
thermo		100
thermo_style custom step temp pe press f_avgp[1] vol
thermo_modify norm no

# NVT
fix 4 all nvt temp 300 300 50
run 3000
Step          Temp          PotEng         Press        f_avgp[1]        Volume
0   310.31269     -42649.728     -2315.3346      0              3885.8921
Averages over the last 16 of 31 rows, steps 1500 to 3000:
Temp PotEng Press f_avgp[1] Volume
305.945 -42641.9 -3652.09 -5083.23 3885.89
Loop time of 100.561 on 8 procs for 3000 steps with 365 atoms

# Obtain new stress tensor, convert index from LAMMPS to Voigt
variable pxx1 equal f_avgp[1]
variable pyy1 equal f_avgp[2]
variable pzz1 equal f_avgp[3]
variable pxy1 equal f_avgp[4]
variable pxz1 equal f_avgp[5]
variable pyz1 equal f_avgp[6]

# Compute elastic constant from pressure tensor
# d1 = -[pxx1-pxx0]/[(]v_delta/v_len0] defined in input script
variable C1pos equal 74.4684766563292
variable C2pos equal 43.6921475614307
variable C3pos equal 37.032672688618
variable C4pos equal -7.71077060063901
variable C5pos equal -9.49751135693052
variable C6pos equal -2.73895373436512

# Combine positive and negative
variable C15 equal 0.5*(-73.3263475386706+74.4684766563292)
variable C25 equal 0.5*(29.0019164806767+43.6921475614307)
variable C35 equal 0.5*(-26.2554434017829+37.032672688618)
variable C45 equal 0.5*(7.90104494133528+-7.71077060063901)
variable C55 equal 0.5*(24.8347134075086+-9.49751135693052)
variable C65 equal 0.5*(-11.1619691762377+-2.73895373436512)

# Delete dir to make sure it is not reused
variable dir delete
# uxy Perturbation
variable dir equal 6
include displace.mod.lmp
# Find which reference length to use
variable len0 equal 13.8463

# Reset box and simulation parameters
clear
# box tilt large
read_restart equil.res
Reading restart file ...
  restart file = 2 Aug 2023, LAMMPS = 2 Aug 2023
  restoring atom style full from restart
  triclinic box = (0 0 0) to (15.3172 13.8463 18.3222) with tilt (-7.7318 0.2463 -0.1382)
  pair style reaxff stores no restart info
  365 atoms
Finding 1-2 1-3 1-4 neighbors ...
     0 = max # of 1-2 neighbors
     0 = max # of 1-3 neighbors
     0 = max # of 1-4 neighbors
     1 = max # of special neighbors
  read_restart CPU = 0.002 seconds
*****Negative-change 6 starts.*****
include ff.mod.lmp
# Setup forcefield, system
# undefine any fix ave/* fix before using reset_timestep
if "$(is_defined(fix,avgp))" then "unfix avgp"
reset_timestep 0

# Assign the force field
pair_style reaxff NULL safezone 3.0 mincap 150
# pair_coeff * * CHONSSi.ff O Si
# pair_coeff * * CHOSiNa.ff O Si
# pair_coeff * * SiOCHN_2018.ff O Si
# pair_coeff * * PDMSDecomp.ff Si O
pair_coeff * * CHONSi.ff C H O Si
# pair_coeff * * CHOFe.ff O Si

# charge method for reaxff
fix myqeq all qeq/reaxff 1 0.0 10.0 1.0e-6 reaxff maxiter 400
# Setup neighbor style
neighbor        2 bin
neigh_modify    every 10 delay 0 check no

# Setup output
fix avgp all ave/time  10 10 100 c_thermo_press mode vector
thermo		100
thermo_style custom step temp pe press f_avgp[1] vol
thermo_modify norm no

# NVT
fix 4 all nvt temp 300 300 50
  fix style: nvt, fix ID: 4

# Negative deformation
variable delta equal -0.01*13.8463
variable deltaxy equal -0.01*xy
variable deltaxz equal -0.01*xz
variable deltayz equal -0.01*yz
change_box all xy delta -0.138463 remap units box
Changing box ...
  triclinic box = (0 0 0) to (15.3172 13.8463 18.3222) with tilt (-7.870263 0.2463 -0.1382)

# Run MD for Negative deformation
# save trajectory
dump dump_neg6 all custom 100 dump/neg_deform6.lammpstrj id type x y z
run 3000
All restart file global fix info was re-assigned
Step          Temp          PotEng         Press        f_avgp[1]        Volume
0   293.90336     -42601.439      7465.4936      0              3885.8921
Averages over the last 16 of 31 rows, steps 1500 to 3000:
Temp PotEng Press f_avgp[1] Volume
299.358 -42623.4 -62.9107 -4365.27 3885.89
Loop time of 96.7118 on 8 procs for 3000 steps with 365 atoms

undump dump_neg6

# Run equilibration
*****Equilibration neg6 starts.*****
include ff.mod.lmp
# Setup forcefield, system
# undefine any fix ave/* fix before using reset_timestep
if "$(is_defined(fix,avgp))" then "unfix avgp"
unfix avgp
reset_timestep 0

# Assign the force field
pair_style reaxff NULL safezone 3.0 mincap 150
# pair_coeff * * CHONSSi.ff O Si
# pair_coeff * * CHOSiNa.ff O Si
# pair_coeff * * SiOCHN_2018.ff O Si
# pair_coeff * * PDMSDecomp.ff Si O
pair_coeff * * CHONSi.ff C H O Si
# pair_coeff * * CHOFe.ff O Si

# charge method for reaxff
fix myqeq all qeq/reaxff 1 0.0 10.0 1.0e-6 reaxff maxiter 400
# Setup neighbor style
neighbor        2 bin
neigh_modify    every 10 delay 0 check no

# Setup output
fix avgp all ave/time  10 10 100 c_thermo_press mode vector
thermo		100
thermo_style custom step temp pe press f_avgp[1] vol
thermo_modify norm no

# NVT
fix 4 all nvt temp 300 300 50
run 3000
Step          Temp          PotEng         Press        f_avgp[1]        Volume
0   301.22386     -42655.392     -3008.2885      0              3885.8921
Averages over the last 16 of 31 rows, steps 1500 to 3000:
Temp PotEng Press f_avgp[1] Volume
297.283 -42636.4 2927.94 -2584.36 3885.89
Loop time of 96.778 on 8 procs for 3000 steps with 365 atoms

# Obtain new stress tensor Negative deformation, convert index from LAMMPS to Voigt
variable pxx1 equal f_avgp[1]
variable pyy1 equal f_avgp[2]
variable pzz1 equal f_avgp[3]
variable pxy1 equal f_avgp[4]
variable pxz1 equal f_avgp[5]
variable pyz1 equal f_avgp[6]

# Compute elastic constant from pressure
# d1 = -[pxx1-pxx0]/[(]v_delta/v_len0] defined in input script
variable C1neg equal -44.3662239218482
variable C2neg equal 56.780486553329
variable C3neg equal 6.64901140430012
variable C4neg equal 4.33029642018835
variable C5neg equal -6.78839816572636
variable C6neg equal 5.78341765263863

# Reset box and simulation parameters
clear
# box tilt large
read_restart equil.res
Reading restart file ...
  restart file = 2 Aug 2023, LAMMPS = 2 Aug 2023
  restoring atom style full from restart
  triclinic box = (0 0 0) to (15.3172 13.8463 18.3222) with tilt (-7.7318 0.2463 -0.1382)
  pair style reaxff stores no restart info
  365 atoms
Finding 1-2 1-3 1-4 neighbors ...
     0 = max # of 1-2 neighbors
     0 = max # of 1-3 neighbors
     0 = max # of 1-4 neighbors
     1 = max # of special neighbors
  read_restart CPU = 0.002 seconds
*****Positive-change 6 starts.*****
include ff.mod.lmp
# Setup forcefield, system
# undefine any fix ave/* fix before using reset_timestep
if "$(is_defined(fix,avgp))" then "unfix avgp"
reset_timestep 0

# Assign the force field
pair_style reaxff NULL safezone 3.0 mincap 150
# pair_coeff * * CHONSSi.ff O Si
# pair_coeff * * CHOSiNa.ff O Si
# pair_coeff * * SiOCHN_2018.ff O Si
# pair_coeff * * PDMSDecomp.ff Si O
pair_coeff * * CHONSi.ff C H O Si
# pair_coeff * * CHOFe.ff O Si

# charge method for reaxff
fix myqeq all qeq/reaxff 1 0.0 10.0 1.0e-6 reaxff maxiter 400
# Setup neighbor style
neighbor        2 bin
neigh_modify    every 10 delay 0 check no

# Setup output
fix avgp all ave/time  10 10 100 c_thermo_press mode vector
thermo		100
thermo_style custom step temp pe press f_avgp[1] vol
thermo_modify norm no

# NVT
fix 4 all nvt temp 300 300 50
  fix style: nvt, fix ID: 4

# Positive deformation
variable delta equal 0.01*13.8463
variable deltaxy equal 0.01*xy
variable deltaxz equal 0.01*xz
variable deltayz equal 0.01*yz
change_box all xy delta 0.138463 remap units box
Changing box ...
  triclinic box = (0 0 0) to (15.3172 13.8463 18.3222) with tilt (-7.593337 0.2463 -0.1382)

# Run positive deformation MD
# save trajectory
dump dump_pos6 all custom 100 dump/pos_deform6.lammpstrj id type x y z
run 3000
All restart file global fix info was re-assigned
Step          Temp          PotEng         Press        f_avgp[1]        Volume
0   293.90336     -42591.767      5019.2592      0              3885.8921
Averages over the last 16 of 31 rows, steps 1500 to 3000:
Temp PotEng Press f_avgp[1] Volume
296.247 -42641.7 -1354.18 -3820.62 3885.89
Loop time of 96.1246 on 8 procs for 3000 steps with 365 atoms

undump dump_pos6

# Run equilibration
*****Equilibration pos6 starts.*****
include ff.mod.lmp
# Setup forcefield, system
# undefine any fix ave/* fix before using reset_timestep
if "$(is_defined(fix,avgp))" then "unfix avgp"
unfix avgp
reset_timestep 0

# Assign the force field
pair_style reaxff NULL safezone 3.0 mincap 150
# pair_coeff * * CHONSSi.ff O Si
# pair_coeff * * CHOSiNa.ff O Si
# pair_coeff * * SiOCHN_2018.ff O Si
# pair_coeff * * PDMSDecomp.ff Si O
pair_coeff * * CHONSi.ff C H O Si
# pair_coeff * * CHOFe.ff O Si

# charge method for reaxff
fix myqeq all qeq/reaxff 1 0.0 10.0 1.0e-6 reaxff maxiter 400
# Setup neighbor style
neighbor        2 bin
neigh_modify    every 10 delay 0 check no

# Setup output
fix avgp all ave/time  10 10 100 c_thermo_press mode vector
thermo		100
thermo_style custom step temp pe press f_avgp[1] vol
thermo_modify norm no

# NVT
fix 4 all nvt temp 300 300 50
run 3000
Step          Temp          PotEng         Press        f_avgp[1]        Volume
0   289.8627      -42660.515     -3762.0929      0              3885.8921
Averages over the last 16 of 31 rows, steps 1500 to 3000:
Temp PotEng Press f_avgp[1] Volume
292.71 -42648.7 -741.174 -4194.82 3885.89
Loop time of 94.4966 on 8 procs for 3000 steps with 365 atoms

# Obtain new stress tensor, convert index from LAMMPS to Voigt
variable pxx1 equal f_avgp[1]
variable pyy1 equal f_avgp[2]
variable pzz1 equal f_avgp[3]
variable pxy1 equal f_avgp[4]
variable pxz1 equal f_avgp[5]
variable pyz1 equal f_avgp[6]

# Compute elastic constant from pressure tensor
# d1 = -[pxx1-pxx0]/[(]v_delta/v_len0] defined in input script
variable C1pos equal 38.3550831317575
variable C2pos equal -46.1910478089028
variable C3pos equal -0.794827086529233
variable C4pos equal 8.09459453254705
variable C5pos equal -22.9491549899607
variable C6pos equal 0.302623232928696

# Combine positive and negative
variable C16 equal 0.5*(-44.3662239218482+38.3550831317575)
variable C26 equal 0.5*(56.780486553329+-46.1910478089028)
variable C36 equal 0.5*(6.64901140430012+-0.794827086529233)
variable C46 equal 0.5*(4.33029642018835+8.09459453254705)
variable C56 equal 0.5*(-6.78839816572636+-22.9491549899607)
variable C66 equal 0.5*(5.78341765263863+0.302623232928696)

# Delete dir to make sure it is not reused
variable dir delete

# Calc and output
include calc.mod.lmp
variable C11all equal 26.8942692063313
variable C22all equal 46.8403926133084
variable C33all equal 55.4646675620768

variable C44all equal 10.4694278770865
variable C55all equal 7.66860102528904
variable C66all equal 3.04302044278366

variable C12all equal 0.5*(37.379095440338+13.7486417262356)
variable C13all equal 0.5*(1.87802799514059+43.4653918802461)
variable C23all equal 0.5*(-0.99061295684195+25.3464131362811)

variable C14all equal 0.5*(24.0222638701044+-9.41847554934711)
variable C15all equal 0.5*(0.571064558829299+-5.46927391105671)
variable C16all equal 0.5*(-3.00557039504535+-3.59936962630845)

variable C24all equal 0.5*(7.372689023996+9.33444874638981)
variable C25all equal 0.5*(36.3470320210537+-8.63212005099181)
variable C26all equal 0.5*(5.2947193722131+-1.68489013362246)

variable C34all equal 0.5*(-4.4109825357282+-4.63154177015162)
variable C35all equal 0.5*(5.38861464341755+-0.191260042076101)
variable C36all equal 0.5*(2.92709215888544+0.131092466719355)

variable C45all equal 0.5*(0.095137170348135+0.2762558521295)
variable C46all equal 0.5*(6.2124454763677+1.41741693452759)
variable C56all equal 0.5*(-14.8687765778435+-6.95046145530141)

# print stiffness tensor to "C.log"
print """
"""  file C.log screen no
