LAMMPS (2 Aug 2023 - Update 2)
# Initialization
units           real
dimension       3
boundary        p p p
atom_style      full
timestep        0.5   # fs

# Define MD parameters
variable nevery equal 10                  # sampling interval
variable nrepeat equal 10                 # number of samples
variable nfreq equal 10*10
variable nthermo equal 100
# 1 ps : 1e3 fs / 0.5 fs = 2e3 steps
variable nequil equal 10*100
variable nrun equal 30*100
variable temp equal 300.0                # temperature of initial sample
variable tdamp equal 50.0                 # time constant for thermostat
variable seed equal 123456                # seed for thermostat
variable ufac equal 1.01325e-4         # pressure unit conversion, from atm to Gpa
variable up equal 0.02                  # the deformation magnitude 2.0e-2

# Read the initial sctructure
# box tilt large
read_data       333SiO2-1-UFF-c.data
Reading data file ...
  triclinic box = (0 0 0) to (14.6913 12.723 15.9631) with tilt (-7.3456 0 0)
  reading atoms ...
  243 atoms
Finding 1-2 1-3 1-4 neighbors ...
     0 = max # of 1-2 neighbors
     0 = max # of 1-3 neighbors
     0 = max # of 1-4 neighbors
     1 = max # of special neighbors

# Energy minimization
print "*****Minimization starts.*****"
*****Minimization starts.*****
velocity        all create 300 123456 dist gaussian
minimize 1.0e-6 1.0e-6 100 1000
Step          Temp          E_pair         E_mol          TotEng         Press
0   300            0              0              216.40681      3315.4065
Loop time of 5.20755e-05 on 64 procs for 1 steps with 243 atoms

Minimization stats:
  Stopping criterion = search direction is not downhill
  Energy initial, next-to-last, final =
  Force two-norm initial, final = 0 0
  Force max component initial, final = 0 0
  Final line search alpha, max atom move = 0 0
  Iterations, force evaluations = 1 0

min_style cg
# Save the optimized structure
write_data sio2_opt.data
System init for write_data ...

# Equilibration
include ff.mod.lmp
# Setup forcefield, system
# undefine any fix ave/* fix before using reset_timestep
if "$(is_defined(fix,avgp))" then "unfix avgp"
reset_timestep 0

# Assign the force field
pair_style reaxff NULL safezone 3.0 mincap 150
# pair_coeff * * CHONSSi.ff O Si
# pair_coeff * * CHOSiNa.ff O Si
# pair_coeff * * SiOCHN_2018.ff O Si
# pair_coeff * * PDMSDecomp.ff Si O
pair_coeff * * CHOFe.ff O Si

# charge method for reaxff
fix myqeq all qeq/reaxff 1 0.0 10.0 1.0e-6 reaxff maxiter 400
# Setup neighbor style
neighbor        2 bin
neigh_modify    every 10 delay 0 check no

# Setup output
fix avgp all ave/time  10 10 100 c_thermo_press mode vector
thermo		100
thermo_style custom step temp pe press f_avgp[1] vol
thermo_modify norm no

# equilibration
fix 4 all nve
fix 5 all langevin 300 300 50 123456

run 1000

CITE-CITE-CITE-CITE-CITE-CITE-CITE-CITE-CITE-CITE-CITE-CITE-CITE

Your simulation uses code contributions which should be cited:

- pair reaxff command: doi:10.1016/j.parco.2011.08.005

@Article{Aktulga12,
 author = {H. M. Aktulga and J. C. Fogarty and S. A. Pandit and A. Y. Grama},
 title = {Parallel Reactive Molecular Dynamics: {N}umerical Methods and Algorithmic Techniques},
 journal = {Parallel Computing},
 year =    2012,
 volume =  38,
 number =  {4--5},
 pages =   {245--259}
}

- fix qeq/reaxff command: doi:10.1016/j.parco.2011.08.005

@Article{Aktulga12,
 author = {H. M. Aktulga and J. C. Fogarty and S. A. Pandit and A. Y. Grama},
 title = {Parallel Reactive Molecular Dynamics: {N}umerical Methods and Algorithmic Techniques},
 journal = {Parallel Computing},
 year =    2012,
 volume =  38,
 pages =   {245--259}
}

CITE-CITE-CITE-CITE-CITE-CITE-CITE-CITE-CITE-CITE-CITE-CITE-CITE

Step          Temp          PotEng         Press        f_avgp[1]        Volume
0   300           -36881.566      21554.577      0              2983.7813
Averages over the last 6 of 11 rows, steps 500 to 1000:
Temp PotEng Press f_avgp[1] Volume
309.53 -36699.4 14115.4 11433.1 2983.78
Loop time of 40.5425 on 64 procs for 1000 steps with 243 atoms

# Save the optimized structure

# Save initial pressure, box size
variable pxx0 equal f_avgp[1]
variable pyy0 equal f_avgp[2]
variable pzz0 equal f_avgp[3]
variable pxy0 equal f_avgp[4]
variable pxz0 equal f_avgp[5]
variable pyz0 equal f_avgp[6]
# use tmp to save constants
variable tmp equal lx
variable lx0 equal 14.6913
variable tmp equal ly
variable ly0 equal 12.723
variable tmp equal lz
variable lz0 equal 15.9631

# define the derivatives, w.r.t. strain tensor
# Constants uses $, variables use v_
variable d1 equal -(v_pxx1-16491.9411780233)/(v_delta/v_len0)*0.000101325
variable d2 equal -(v_pyy1-15169.6409646663)/(v_delta/v_len0)*0.000101325
variable d3 equal -(v_pzz1-24458.7830745351)/(v_delta/v_len0)*0.000101325
variable d4 equal -(v_pyz1--929.792455234152)/(v_delta/v_len0)*0.000101325*0.5
variable d5 equal -(v_pxz1--2861.99563646557)/(v_delta/v_len0)*0.000101325*0.5
variable d6 equal -(v_pxy1-435.170236268693)/(v_delta/v_len0)*0.000101325*0.5

# Write restart
write_restart equil.res
System init for write_restart ...

# dir: direction
# uxx Perturbation
variable dir equal 1
include displace.mod.lmp
# Find which reference length to use
variable len0 equal 14.6913

# Reset box and simulation parameters
clear
# box tilt large
read_restart equil.res
Reading restart file ...
  restart file = 2 Aug 2023, LAMMPS = 2 Aug 2023
  restoring atom style full from restart
  triclinic box = (0 0 0) to (14.6913 12.723 15.9631) with tilt (-7.3456 0 0)
  pair style reaxff stores no restart info
  243 atoms
Finding 1-2 1-3 1-4 neighbors ...
     0 = max # of 1-2 neighbors
     0 = max # of 1-3 neighbors
     0 = max # of 1-4 neighbors
     1 = max # of special neighbors
  read_restart CPU = 0.004 seconds
include ff.mod.lmp
# Setup forcefield, system
# undefine any fix ave/* fix before using reset_timestep
if "$(is_defined(fix,avgp))" then "unfix avgp"
reset_timestep 0

# Assign the force field
pair_style reaxff NULL safezone 3.0 mincap 150
# pair_coeff * * CHONSSi.ff O Si
# pair_coeff * * CHOSiNa.ff O Si
# pair_coeff * * SiOCHN_2018.ff O Si
# pair_coeff * * PDMSDecomp.ff Si O
pair_coeff * * CHOFe.ff O Si

# charge method for reaxff
fix myqeq all qeq/reaxff 1 0.0 10.0 1.0e-6 reaxff maxiter 400
# Setup neighbor style
neighbor        2 bin
neigh_modify    every 10 delay 0 check no

# Setup output
fix avgp all ave/time  10 10 100 c_thermo_press mode vector
thermo		100
thermo_style custom step temp pe press f_avgp[1] vol
thermo_modify norm no

# equilibration
fix 4 all nve
fix 5 all langevin 300 300 50 123456

# Negative deformation
variable delta equal -0.02*14.6913
variable deltaxy equal -0.02*xy
variable deltaxz equal -0.02*xz
variable deltayz equal -0.02*yz
change_box all x delta 0 -0.293826 xy delta 0.146912 xz delta -0 remap units box
Changing box ...
  triclinic box = (0 0 0) to (14.397474 12.723 15.9631) with tilt (-7.3456 0 0)
  triclinic box = (0 0 0) to (14.397474 12.723 15.9631) with tilt (-7.198688 0 0)
  triclinic box = (0 0 0) to (14.397474 12.723 15.9631) with tilt (-7.198688 0 0)

# Run MD for Negative deformation
# save trajectory
dump dump_neg1 all custom 100 dump/neg_deform1.lammpstrj id type x y z
run 3000
Step          Temp          PotEng         Press        f_avgp[1]        Volume
0   309.57385     -36570.675      129039.5       0              2924.1057
Averages over the last 16 of 31 rows, steps 1500 to 3000:
Temp PotEng Press f_avgp[1] Volume
298.461 -36711 24399.5 33970.2 2924.11
Loop time of 123.848 on 64 procs for 3000 steps with 243 atoms

undump dump_neg1

# Run equilibration
include ff.mod.lmp
# Setup forcefield, system
# undefine any fix ave/* fix before using reset_timestep
if "$(is_defined(fix,avgp))" then "unfix avgp"
unfix avgp
reset_timestep 0

# Assign the force field
pair_style reaxff NULL safezone 3.0 mincap 150
# pair_coeff * * CHONSSi.ff O Si
# pair_coeff * * CHOSiNa.ff O Si
# pair_coeff * * SiOCHN_2018.ff O Si
# pair_coeff * * PDMSDecomp.ff Si O
pair_coeff * * CHOFe.ff O Si

# charge method for reaxff
fix myqeq all qeq/reaxff 1 0.0 10.0 1.0e-6 reaxff maxiter 400
# Setup neighbor style
neighbor        2 bin
neigh_modify    every 10 delay 0 check no

# Setup output
fix avgp all ave/time  10 10 100 c_thermo_press mode vector
thermo		100
thermo_style custom step temp pe press f_avgp[1] vol
thermo_modify norm no

# equilibration
fix 4 all nve
fix 5 all langevin 300 300 50 123456

run 1000
Step          Temp          PotEng         Press        f_avgp[1]        Volume
0   295.69069     -36696.014      18110.61       0              2924.1057
Averages over the last 6 of 11 rows, steps 500 to 1000:
Temp PotEng Press f_avgp[1] Volume
312.07 -36694.1 25789.9 31466.5 2924.11
Loop time of 41.289 on 64 procs for 1000 steps with 243 atoms

# Obtain new stress tensor Negative deformation
variable pxx1 equal f_avgp[1]
variable pyy1 equal f_avgp[2]
variable pzz1 equal f_avgp[3]
variable pxy1 equal f_avgp[4]
variable pxz1 equal f_avgp[5]
variable pyz1 equal f_avgp[6]

# Compute elastic constant from pressure
# d1 = -[pxx1-pxx0]/[(]v_delta/v_len0] defined in input script
variable C1neg equal 90.8621105662191
variable C2neg equal 49.5231753523599
variable C3neg equal 28.010464767454
variable C4neg equal 14.8687329381502
variable C5neg equal -11.9115720409585
variable C6neg equal 10.5486084762006

# Reset box and simulation parameters
clear
# box tilt large
read_restart equil.res
Reading restart file ...
  restart file = 2 Aug 2023, LAMMPS = 2 Aug 2023
  restoring atom style full from restart
  triclinic box = (0 0 0) to (14.6913 12.723 15.9631) with tilt (-7.3456 0 0)
  pair style reaxff stores no restart info
  243 atoms
Finding 1-2 1-3 1-4 neighbors ...
     0 = max # of 1-2 neighbors
     0 = max # of 1-3 neighbors
     0 = max # of 1-4 neighbors
     1 = max # of special neighbors
  read_restart CPU = 0.003 seconds
include ff.mod.lmp
# Setup forcefield, system
# undefine any fix ave/* fix before using reset_timestep
if "$(is_defined(fix,avgp))" then "unfix avgp"
reset_timestep 0

# Assign the force field
pair_style reaxff NULL safezone 3.0 mincap 150
# pair_coeff * * CHONSSi.ff O Si
# pair_coeff * * CHOSiNa.ff O Si
# pair_coeff * * SiOCHN_2018.ff O Si
# pair_coeff * * PDMSDecomp.ff Si O
pair_coeff * * CHOFe.ff O Si

# charge method for reaxff
fix myqeq all qeq/reaxff 1 0.0 10.0 1.0e-6 reaxff maxiter 400
# Setup neighbor style
neighbor        2 bin
neigh_modify    every 10 delay 0 check no

# Setup output
fix avgp all ave/time  10 10 100 c_thermo_press mode vector
thermo		100
thermo_style custom step temp pe press f_avgp[1] vol
thermo_modify norm no

# equilibration
fix 4 all nve
fix 5 all langevin 300 300 50 123456

# Positive deformation
variable delta equal 0.02*14.6913
variable deltaxy equal 0.02*xy
variable deltaxz equal 0.02*xz
variable deltayz equal 0.02*yz
change_box all x delta 0 0.293826 xy delta -0.146912 xz delta 0 remap units box
Changing box ...
  triclinic box = (0 0 0) to (14.985126 12.723 15.9631) with tilt (-7.3456 0 0)
  triclinic box = (0 0 0) to (14.985126 12.723 15.9631) with tilt (-7.492512 0 0)
  triclinic box = (0 0 0) to (14.985126 12.723 15.9631) with tilt (-7.492512 0 0)

# Run positive deformation MD
# save trajectory
dump dump_pos1 all custom 100 dump/pos_deform1.lammpstrj id type x y z
run 3000
Step          Temp          PotEng         Press        f_avgp[1]        Volume
0   309.57385     -36649.363      6791.7197      0              3043.4569
Averages over the last 16 of 31 rows, steps 1500 to 3000:
Temp PotEng Press f_avgp[1] Volume
295.973 -36707.5 2775.86 -10279.8 3043.46
Loop time of 119.201 on 64 procs for 3000 steps with 243 atoms

undump dump_pos1

# Run equilibration
include ff.mod.lmp
# Setup forcefield, system
# undefine any fix ave/* fix before using reset_timestep
if "$(is_defined(fix,avgp))" then "unfix avgp"
unfix avgp
reset_timestep 0

# Assign the force field
pair_style reaxff NULL safezone 3.0 mincap 150
# pair_coeff * * CHONSSi.ff O Si
# pair_coeff * * CHOSiNa.ff O Si
# pair_coeff * * SiOCHN_2018.ff O Si
# pair_coeff * * PDMSDecomp.ff Si O
pair_coeff * * CHOFe.ff O Si

# charge method for reaxff
fix myqeq all qeq/reaxff 1 0.0 10.0 1.0e-6 reaxff maxiter 400
# Setup neighbor style
neighbor        2 bin
neigh_modify    every 10 delay 0 check no

# Setup output
fix avgp all ave/time  10 10 100 c_thermo_press mode vector
thermo		100
thermo_style custom step temp pe press f_avgp[1] vol
thermo_modify norm no

# equilibration
fix 4 all nve
fix 5 all langevin 300 300 50 123456

run 1000
Step          Temp          PotEng         Press        f_avgp[1]        Volume
0   279.92432     -36720.059     -1503.3915      0              3043.4569
Averages over the last 6 of 11 rows, steps 500 to 1000:
Temp PotEng Press f_avgp[1] Volume
308.953 -36702.5 2942.9 -8729.49 3043.46
Loop time of 39.6723 on 64 procs for 1000 steps with 243 atoms

# Obtain new stress tensor
variable pxx1 equal f_avgp[1]
variable pyy1 equal f_avgp[2]
variable pzz1 equal f_avgp[3]
variable pxy1 equal f_avgp[4]
variable pxz1 equal f_avgp[5]
variable pyz1 equal f_avgp[6]

# Compute elastic constant from pressure tensor
# d1 = -[pxx1-pxx0]/[(]v_delta/v_len0] defined in input script
variable C1pos equal 127.899623011593
variable C2pos equal 41.3228674813966
variable C3pos equal 54.5355908119445
variable C4pos equal -2.03545523560158
variable C5pos equal -9.63345013389029
variable C6pos equal 3.49677954541008

# Combine positive and negative
variable C11 equal 0.5*(90.8621105662191+127.899623011593)
variable C21 equal 0.5*(49.5231753523599+41.3228674813966)
variable C31 equal 0.5*(28.010464767454+54.5355908119445)
variable C41 equal 0.5*(14.8687329381502+-2.03545523560158)
variable C51 equal 0.5*(-11.9115720409585+-9.63345013389029)
variable C61 equal 0.5*(10.5486084762006+3.49677954541008)

# Delete dir to make sure it is not reused
variable dir delete
# uyy Perturbation
variable dir equal 2
include displace.mod.lmp
# Find which reference length to use
variable len0 equal 12.723

# Reset box and simulation parameters
clear
# box tilt large
read_restart equil.res
Reading restart file ...
  restart file = 2 Aug 2023, LAMMPS = 2 Aug 2023
  restoring atom style full from restart
  triclinic box = (0 0 0) to (14.6913 12.723 15.9631) with tilt (-7.3456 0 0)
  pair style reaxff stores no restart info
  243 atoms
Finding 1-2 1-3 1-4 neighbors ...
     0 = max # of 1-2 neighbors
     0 = max # of 1-3 neighbors
     0 = max # of 1-4 neighbors
     1 = max # of special neighbors
  read_restart CPU = 0.003 seconds
include ff.mod.lmp
# Setup forcefield, system
# undefine any fix ave/* fix before using reset_timestep
if "$(is_defined(fix,avgp))" then "unfix avgp"
reset_timestep 0

# Assign the force field
pair_style reaxff NULL safezone 3.0 mincap 150
# pair_coeff * * CHONSSi.ff O Si
# pair_coeff * * CHOSiNa.ff O Si
# pair_coeff * * SiOCHN_2018.ff O Si
# pair_coeff * * PDMSDecomp.ff Si O
pair_coeff * * CHOFe.ff O Si

# charge method for reaxff
fix myqeq all qeq/reaxff 1 0.0 10.0 1.0e-6 reaxff maxiter 400
# Setup neighbor style
neighbor        2 bin
neigh_modify    every 10 delay 0 check no

# Setup output
fix avgp all ave/time  10 10 100 c_thermo_press mode vector
thermo		100
thermo_style custom step temp pe press f_avgp[1] vol
thermo_modify norm no

# equilibration
fix 4 all nve
fix 5 all langevin 300 300 50 123456

# Negative deformation
variable delta equal -0.02*12.723
variable deltaxy equal -0.02*xy
variable deltaxz equal -0.02*xz
variable deltayz equal -0.02*yz
change_box all y delta 0 -0.25446 yz delta -0 remap units box
Changing box ...
  triclinic box = (0 0 0) to (14.6913 12.46854 15.9631) with tilt (-7.3456 0 0)
  triclinic box = (0 0 0) to (14.6913 12.46854 15.9631) with tilt (-7.3456 0 0)

# Run MD for Negative deformation
# save trajectory
dump dump_neg2 all custom 100 dump/neg_deform2.lammpstrj id type x y z
run 3000
Step          Temp          PotEng         Press        f_avgp[1]        Volume
0   309.57385     -36545.413      158513.37      0              2924.1057
Averages over the last 16 of 31 rows, steps 1500 to 3000:
Temp PotEng Press f_avgp[1] Volume
294.609 -36707.3 24383.6 18318.4 2924.11
Loop time of 116.905 on 64 procs for 3000 steps with 243 atoms

undump dump_neg2

# Run equilibration
include ff.mod.lmp
# Setup forcefield, system
# undefine any fix ave/* fix before using reset_timestep
if "$(is_defined(fix,avgp))" then "unfix avgp"
unfix avgp
reset_timestep 0

# Assign the force field
pair_style reaxff NULL safezone 3.0 mincap 150
# pair_coeff * * CHONSSi.ff O Si
# pair_coeff * * CHOSiNa.ff O Si
# pair_coeff * * SiOCHN_2018.ff O Si
# pair_coeff * * PDMSDecomp.ff Si O
pair_coeff * * CHOFe.ff O Si

# charge method for reaxff
fix myqeq all qeq/reaxff 1 0.0 10.0 1.0e-6 reaxff maxiter 400
# Setup neighbor style
neighbor        2 bin
neigh_modify    every 10 delay 0 check no

# Setup output
fix avgp all ave/time  10 10 100 c_thermo_press mode vector
thermo		100
thermo_style custom step temp pe press f_avgp[1] vol
thermo_modify norm no

# equilibration
fix 4 all nve
fix 5 all langevin 300 300 50 123456

run 1000
Step          Temp          PotEng         Press        f_avgp[1]        Volume
0   263.84497     -36712.082      25001.434      0              2924.1057
Averages over the last 6 of 11 rows, steps 500 to 1000:
Temp PotEng Press f_avgp[1] Volume
315.27 -36704.2 25250.6 15723.1 2924.11
Loop time of 36.6863 on 64 procs for 1000 steps with 243 atoms

# Obtain new stress tensor Negative deformation
variable pxx1 equal f_avgp[1]
variable pyy1 equal f_avgp[2]
variable pzz1 equal f_avgp[3]
variable pxy1 equal f_avgp[4]
variable pxz1 equal f_avgp[5]
variable pyz1 equal f_avgp[6]

# Compute elastic constant from pressure
# d1 = -[pxx1-pxx0]/[(]v_delta/v_len0] defined in input script
variable C1neg equal 20.8015558728619
variable C2neg equal 78.8401116984251
variable C3neg equal -0.912539040982648
variable C4neg equal 15.3490651753184
variable C5neg equal -2.97295754914856
variable C6neg equal -13.6102556728753

# Reset box and simulation parameters
clear
# box tilt large
read_restart equil.res
Reading restart file ...
  restart file = 2 Aug 2023, LAMMPS = 2 Aug 2023
  restoring atom style full from restart
  triclinic box = (0 0 0) to (14.6913 12.723 15.9631) with tilt (-7.3456 0 0)
  pair style reaxff stores no restart info
  243 atoms
Finding 1-2 1-3 1-4 neighbors ...
     0 = max # of 1-2 neighbors
     0 = max # of 1-3 neighbors
     0 = max # of 1-4 neighbors
     1 = max # of special neighbors
  read_restart CPU = 0.003 seconds
include ff.mod.lmp
# Setup forcefield, system
# undefine any fix ave/* fix before using reset_timestep
if "$(is_defined(fix,avgp))" then "unfix avgp"
reset_timestep 0

# Assign the force field
pair_style reaxff NULL safezone 3.0 mincap 150
# pair_coeff * * CHONSSi.ff O Si
# pair_coeff * * CHOSiNa.ff O Si
# pair_coeff * * SiOCHN_2018.ff O Si
# pair_coeff * * PDMSDecomp.ff Si O
pair_coeff * * CHOFe.ff O Si

# charge method for reaxff
fix myqeq all qeq/reaxff 1 0.0 10.0 1.0e-6 reaxff maxiter 400
# Setup neighbor style
neighbor        2 bin
neigh_modify    every 10 delay 0 check no

# Setup output
fix avgp all ave/time  10 10 100 c_thermo_press mode vector
thermo		100
thermo_style custom step temp pe press f_avgp[1] vol
thermo_modify norm no

# equilibration
fix 4 all nve
fix 5 all langevin 300 300 50 123456

# Positive deformation
variable delta equal 0.02*12.723
variable deltaxy equal 0.02*xy
variable deltaxz equal 0.02*xz
variable deltayz equal 0.02*yz
change_box all y delta 0 0.25446 yz delta 0 remap units box
Changing box ...
  triclinic box = (0 0 0) to (14.6913 12.97746 15.9631) with tilt (-7.3456 0 0)
  triclinic box = (0 0 0) to (14.6913 12.97746 15.9631) with tilt (-7.3456 0 0)

# Run positive deformation MD
# save trajectory
dump dump_pos2 all custom 100 dump/pos_deform2.lammpstrj id type x y z
run 3000
Step          Temp          PotEng         Press        f_avgp[1]        Volume
0   309.57385     -36645.288      3951.5585      0              3043.4569
Averages over the last 16 of 31 rows, steps 1500 to 3000:
Temp PotEng Press f_avgp[1] Volume
306.84 -36708 2797.52 4527.09 3043.46
Loop time of 105.411 on 64 procs for 3000 steps with 243 atoms

undump dump_pos2

# Run equilibration
include ff.mod.lmp
# Setup forcefield, system
# undefine any fix ave/* fix before using reset_timestep
if "$(is_defined(fix,avgp))" then "unfix avgp"
unfix avgp
reset_timestep 0

# Assign the force field
pair_style reaxff NULL safezone 3.0 mincap 150
# pair_coeff * * CHONSSi.ff O Si
# pair_coeff * * CHOSiNa.ff O Si
# pair_coeff * * SiOCHN_2018.ff O Si
# pair_coeff * * PDMSDecomp.ff Si O
pair_coeff * * CHOFe.ff O Si

# charge method for reaxff
fix myqeq all qeq/reaxff 1 0.0 10.0 1.0e-6 reaxff maxiter 400
# Setup neighbor style
neighbor        2 bin
neigh_modify    every 10 delay 0 check no

# Setup output
fix avgp all ave/time  10 10 100 c_thermo_press mode vector
thermo		100
thermo_style custom step temp pe press f_avgp[1] vol
thermo_modify norm no

# equilibration
fix 4 all nve
fix 5 all langevin 300 300 50 123456

run 1000
Step          Temp          PotEng         Press        f_avgp[1]        Volume
0   288.69013     -36663.029      7092.7348      0              3043.4569
Averages over the last 6 of 11 rows, steps 500 to 1000:
Temp PotEng Press f_avgp[1] Volume
288.373 -36711 2407.88 3849.47 3043.46
Loop time of 34.8955 on 64 procs for 1000 steps with 243 atoms

# Obtain new stress tensor
variable pxx1 equal f_avgp[1]
variable pyy1 equal f_avgp[2]
variable pzz1 equal f_avgp[3]
variable pxy1 equal f_avgp[4]
variable pxz1 equal f_avgp[5]
variable pyz1 equal f_avgp[6]

# Compute elastic constant from pressure tensor
# d1 = -[pxx1-pxx0]/[(]v_delta/v_len0] defined in input script
variable C1pos equal 47.7487846235273
variable C2pos equal 106.433791888409
variable C3pos equal 41.0088344374938
variable C4pos equal -12.9094573178925
variable C5pos equal -16.1831554842583
variable C6pos equal -6.02859949870924

# Combine positive and negative
variable C12 equal 0.5*(20.8015558728619+47.7487846235273)
variable C22 equal 0.5*(78.8401116984251+106.433791888409)
variable C32 equal 0.5*(-0.912539040982648+41.0088344374938)
variable C42 equal 0.5*(15.3490651753184+-12.9094573178925)
variable C52 equal 0.5*(-2.97295754914856+-16.1831554842583)
variable C62 equal 0.5*(-13.6102556728753+-6.02859949870924)

# Delete dir to make sure it is not reused
variable dir delete
# uzz Perturbation
variable dir equal 3
include displace.mod.lmp
# Find which reference length to use
variable len0 equal 15.9631

# Reset box and simulation parameters
clear
# box tilt large
read_restart equil.res
Reading restart file ...
  restart file = 2 Aug 2023, LAMMPS = 2 Aug 2023
  restoring atom style full from restart
  triclinic box = (0 0 0) to (14.6913 12.723 15.9631) with tilt (-7.3456 0 0)
  pair style reaxff stores no restart info
  243 atoms
Finding 1-2 1-3 1-4 neighbors ...
     0 = max # of 1-2 neighbors
     0 = max # of 1-3 neighbors
     0 = max # of 1-4 neighbors
     1 = max # of special neighbors
  read_restart CPU = 0.003 seconds
include ff.mod.lmp
# Setup forcefield, system
# undefine any fix ave/* fix before using reset_timestep
if "$(is_defined(fix,avgp))" then "unfix avgp"
reset_timestep 0

# Assign the force field
pair_style reaxff NULL safezone 3.0 mincap 150
# pair_coeff * * CHONSSi.ff O Si
# pair_coeff * * CHOSiNa.ff O Si
# pair_coeff * * SiOCHN_2018.ff O Si
# pair_coeff * * PDMSDecomp.ff Si O
pair_coeff * * CHOFe.ff O Si

# charge method for reaxff
fix myqeq all qeq/reaxff 1 0.0 10.0 1.0e-6 reaxff maxiter 400
# Setup neighbor style
neighbor        2 bin
neigh_modify    every 10 delay 0 check no

# Setup output
fix avgp all ave/time  10 10 100 c_thermo_press mode vector
thermo		100
thermo_style custom step temp pe press f_avgp[1] vol
thermo_modify norm no

# equilibration
fix 4 all nve
fix 5 all langevin 300 300 50 123456

# Negative deformation
variable delta equal -0.02*15.9631
variable deltaxy equal -0.02*xy
variable deltaxz equal -0.02*xz
variable deltayz equal -0.02*yz
change_box all z delta 0 -0.319262 remap units box
Changing box ...
  triclinic box = (0 0 0) to (14.6913 12.723 15.643838) with tilt (-7.3456 0 0)

# Run MD for Negative deformation
# save trajectory
dump dump_neg3 all custom 100 dump/neg_deform3.lammpstrj id type x y z
run 3000
Step          Temp          PotEng         Press        f_avgp[1]        Volume
0   309.57385     -36658.409      70073.243      0              2924.1057
Averages over the last 16 of 31 rows, steps 1500 to 3000:
Temp PotEng Press f_avgp[1] Volume
300.18 -36698.7 23729.5 17172.8 2924.11
Loop time of 110.41 on 64 procs for 3000 steps with 243 atoms

undump dump_neg3

# Run equilibration
include ff.mod.lmp
# Setup forcefield, system
# undefine any fix ave/* fix before using reset_timestep
if "$(is_defined(fix,avgp))" then "unfix avgp"
unfix avgp
reset_timestep 0

# Assign the force field
pair_style reaxff NULL safezone 3.0 mincap 150
# pair_coeff * * CHONSSi.ff O Si
# pair_coeff * * CHOSiNa.ff O Si
# pair_coeff * * SiOCHN_2018.ff O Si
# pair_coeff * * PDMSDecomp.ff Si O
pair_coeff * * CHOFe.ff O Si

# charge method for reaxff
fix myqeq all qeq/reaxff 1 0.0 10.0 1.0e-6 reaxff maxiter 400
# Setup neighbor style
neighbor        2 bin
neigh_modify    every 10 delay 0 check no

# Setup output
fix avgp all ave/time  10 10 100 c_thermo_press mode vector
thermo		100
thermo_style custom step temp pe press f_avgp[1] vol
thermo_modify norm no

# equilibration
fix 4 all nve
fix 5 all langevin 300 300 50 123456

run 1000
Step          Temp          PotEng         Press        f_avgp[1]        Volume
0   301.68934     -36708.44       26618.06       0              2924.1057
Averages over the last 6 of 11 rows, steps 500 to 1000:
Temp PotEng Press f_avgp[1] Volume
300.614 -36686.5 25709.8 16272.5 2924.11
Loop time of 37.0278 on 64 procs for 1000 steps with 243 atoms

# Obtain new stress tensor Negative deformation
variable pxx1 equal f_avgp[1]
variable pyy1 equal f_avgp[2]
variable pzz1 equal f_avgp[3]
variable pxy1 equal f_avgp[4]
variable pxz1 equal f_avgp[5]
variable pyz1 equal f_avgp[6]

# Compute elastic constant from pressure
# d1 = -[pxx1-pxx0]/[(]v_delta/v_len0] defined in input script
variable C1neg equal 10.6956783490498
variable C2neg equal 18.0073975679361
variable C3neg equal 73.0119554464263
variable C4neg equal -2.69620316371172
variable C5neg equal 16.488353216083
variable C6neg equal -2.94003999127753

# Reset box and simulation parameters
clear
# box tilt large
read_restart equil.res
Reading restart file ...
  restart file = 2 Aug 2023, LAMMPS = 2 Aug 2023
  restoring atom style full from restart
  triclinic box = (0 0 0) to (14.6913 12.723 15.9631) with tilt (-7.3456 0 0)
  pair style reaxff stores no restart info
  243 atoms
Finding 1-2 1-3 1-4 neighbors ...
     0 = max # of 1-2 neighbors
     0 = max # of 1-3 neighbors
     0 = max # of 1-4 neighbors
     1 = max # of special neighbors
  read_restart CPU = 0.002 seconds
include ff.mod.lmp
# Setup forcefield, system
# undefine any fix ave/* fix before using reset_timestep
if "$(is_defined(fix,avgp))" then "unfix avgp"
reset_timestep 0

# Assign the force field
pair_style reaxff NULL safezone 3.0 mincap 150
# pair_coeff * * CHONSSi.ff O Si
# pair_coeff * * CHOSiNa.ff O Si
# pair_coeff * * SiOCHN_2018.ff O Si
# pair_coeff * * PDMSDecomp.ff Si O
pair_coeff * * CHOFe.ff O Si

# charge method for reaxff
fix myqeq all qeq/reaxff 1 0.0 10.0 1.0e-6 reaxff maxiter 400
# Setup neighbor style
neighbor        2 bin
neigh_modify    every 10 delay 0 check no

# Setup output
fix avgp all ave/time  10 10 100 c_thermo_press mode vector
thermo		100
thermo_style custom step temp pe press f_avgp[1] vol
thermo_modify norm no

# equilibration
fix 4 all nve
fix 5 all langevin 300 300 50 123456

# Positive deformation
variable delta equal 0.02*15.9631
variable deltaxy equal 0.02*xy
variable deltaxz equal 0.02*xz
variable deltayz equal 0.02*yz
change_box all z delta 0 0.319262 remap units box
Changing box ...
  triclinic box = (0 0 0) to (14.6913 12.723 16.282362) with tilt (-7.3456 0 0)

# Run positive deformation MD
# save trajectory
dump dump_pos3 all custom 100 dump/pos_deform3.lammpstrj id type x y z
run 3000
Step          Temp          PotEng         Press        f_avgp[1]        Volume
0   309.57385     -36690.883     -11221.701      0              3043.4569
Averages over the last 16 of 31 rows, steps 1500 to 3000:
Temp PotEng Press f_avgp[1] Volume
301.323 -36714.2 4452.51 4724.93 3043.46
Loop time of 106.534 on 64 procs for 3000 steps with 243 atoms

undump dump_pos3

# Run equilibration
include ff.mod.lmp
# Setup forcefield, system
# undefine any fix ave/* fix before using reset_timestep
if "$(is_defined(fix,avgp))" then "unfix avgp"
unfix avgp
reset_timestep 0

# Assign the force field
pair_style reaxff NULL safezone 3.0 mincap 150
# pair_coeff * * CHONSSi.ff O Si
# pair_coeff * * CHOSiNa.ff O Si
# pair_coeff * * SiOCHN_2018.ff O Si
# pair_coeff * * PDMSDecomp.ff Si O
pair_coeff * * CHOFe.ff O Si

# charge method for reaxff
fix myqeq all qeq/reaxff 1 0.0 10.0 1.0e-6 reaxff maxiter 400
# Setup neighbor style
neighbor        2 bin
neigh_modify    every 10 delay 0 check no

# Setup output
fix avgp all ave/time  10 10 100 c_thermo_press mode vector
thermo		100
thermo_style custom step temp pe press f_avgp[1] vol
thermo_modify norm no

# equilibration
fix 4 all nve
fix 5 all langevin 300 300 50 123456

run 1000
Step          Temp          PotEng         Press        f_avgp[1]        Volume
0   310.04098     -36705.208      8069.6389      0              3043.4569
Averages over the last 6 of 11 rows, steps 500 to 1000:
Temp PotEng Press f_avgp[1] Volume
300.773 -36709.9 4668.36 2448.04 3043.46
Loop time of 35.2073 on 64 procs for 1000 steps with 243 atoms

# Obtain new stress tensor
variable pxx1 equal f_avgp[1]
variable pyy1 equal f_avgp[2]
variable pzz1 equal f_avgp[3]
variable pxy1 equal f_avgp[4]
variable pxz1 equal f_avgp[5]
variable pyz1 equal f_avgp[6]

# Compute elastic constant from pressure tensor
# d1 = -[pxx1-pxx0]/[(]v_delta/v_len0] defined in input script
variable C1pos equal 66.2644519301952
variable C2pos equal 17.6990593202929
variable C3pos equal 93.8426080155466
variable C4pos equal 12.4098978758304
variable C5pos equal -16.5418801471127
variable C6pos equal -2.12060960037542

# Combine positive and negative
variable C13 equal 0.5*(10.6956783490498+66.2644519301952)
variable C23 equal 0.5*(18.0073975679361+17.6990593202929)
variable C33 equal 0.5*(73.0119554464263+93.8426080155466)
variable C43 equal 0.5*(-2.69620316371172+12.4098978758304)
variable C53 equal 0.5*(16.488353216083+-16.5418801471127)
variable C63 equal 0.5*(-2.94003999127753+-2.12060960037542)

# Delete dir to make sure it is not reused
variable dir delete
# uyz Perturbation
variable dir equal 4
include displace.mod.lmp
# Find which reference length to use
variable len0 equal 15.9631

# Reset box and simulation parameters
clear
# box tilt large
read_restart equil.res
Reading restart file ...
  restart file = 2 Aug 2023, LAMMPS = 2 Aug 2023
  restoring atom style full from restart
  triclinic box = (0 0 0) to (14.6913 12.723 15.9631) with tilt (-7.3456 0 0)
  pair style reaxff stores no restart info
  243 atoms
Finding 1-2 1-3 1-4 neighbors ...
     0 = max # of 1-2 neighbors
     0 = max # of 1-3 neighbors
     0 = max # of 1-4 neighbors
     1 = max # of special neighbors
  read_restart CPU = 0.004 seconds
include ff.mod.lmp
# Setup forcefield, system
# undefine any fix ave/* fix before using reset_timestep
if "$(is_defined(fix,avgp))" then "unfix avgp"
reset_timestep 0

# Assign the force field
pair_style reaxff NULL safezone 3.0 mincap 150
# pair_coeff * * CHONSSi.ff O Si
# pair_coeff * * CHOSiNa.ff O Si
# pair_coeff * * SiOCHN_2018.ff O Si
# pair_coeff * * PDMSDecomp.ff Si O
pair_coeff * * CHOFe.ff O Si

# charge method for reaxff
fix myqeq all qeq/reaxff 1 0.0 10.0 1.0e-6 reaxff maxiter 400
# Setup neighbor style
neighbor        2 bin
neigh_modify    every 10 delay 0 check no

# Setup output
fix avgp all ave/time  10 10 100 c_thermo_press mode vector
thermo		100
thermo_style custom step temp pe press f_avgp[1] vol
thermo_modify norm no

# equilibration
fix 4 all nve
fix 5 all langevin 300 300 50 123456

# Negative deformation
variable delta equal -0.02*15.9631
variable deltaxy equal -0.02*xy
variable deltaxz equal -0.02*xz
variable deltayz equal -0.02*yz
change_box all yz delta -0.319262 remap units box
Changing box ...
  triclinic box = (0 0 0) to (14.6913 12.723 15.9631) with tilt (-7.3456 0 -0.319262)

# Run MD for Negative deformation
# save trajectory
dump dump_neg4 all custom 100 dump/neg_deform4.lammpstrj id type x y z
run 3000
Step          Temp          PotEng         Press        f_avgp[1]        Volume
0   309.57385     -36591.955      69040.821      0              2983.7813
Averages over the last 16 of 31 rows, steps 1500 to 3000:
Temp PotEng Press f_avgp[1] Volume
300.072 -36711.3 13386.6 10396.3 2983.78
Loop time of 109.014 on 64 procs for 3000 steps with 243 atoms

undump dump_neg4

# Run equilibration
include ff.mod.lmp
# Setup forcefield, system
# undefine any fix ave/* fix before using reset_timestep
if "$(is_defined(fix,avgp))" then "unfix avgp"
unfix avgp
reset_timestep 0

# Assign the force field
pair_style reaxff NULL safezone 3.0 mincap 150
# pair_coeff * * CHONSSi.ff O Si
# pair_coeff * * CHOSiNa.ff O Si
# pair_coeff * * SiOCHN_2018.ff O Si
# pair_coeff * * PDMSDecomp.ff Si O
pair_coeff * * CHOFe.ff O Si

# charge method for reaxff
fix myqeq all qeq/reaxff 1 0.0 10.0 1.0e-6 reaxff maxiter 400
# Setup neighbor style
neighbor        2 bin
neigh_modify    every 10 delay 0 check no

# Setup output
fix avgp all ave/time  10 10 100 c_thermo_press mode vector
thermo		100
thermo_style custom step temp pe press f_avgp[1] vol
thermo_modify norm no

# equilibration
fix 4 all nve
fix 5 all langevin 300 300 50 123456

run 1000
Step          Temp          PotEng         Press        f_avgp[1]        Volume
0   301.51978     -36698.96       20677.769      0              2983.7813
Averages over the last 6 of 11 rows, steps 500 to 1000:
Temp PotEng Press f_avgp[1] Volume
291.441 -36713.1 12506.1 10820.1 2983.78
Loop time of 35.9719 on 64 procs for 1000 steps with 243 atoms

# Obtain new stress tensor Negative deformation
variable pxx1 equal f_avgp[1]
variable pyy1 equal f_avgp[2]
variable pzz1 equal f_avgp[3]
variable pxy1 equal f_avgp[4]
variable pxz1 equal f_avgp[5]
variable pyz1 equal f_avgp[6]

# Compute elastic constant from pressure
# d1 = -[pxx1-pxx0]/[(]v_delta/v_len0] defined in input script
variable C1neg equal -33.0056210639293
variable C2neg equal -27.7122196905306
variable C3neg equal -38.0597156180446
variable C4neg equal 26.1202661617096
variable C5neg equal -0.412564617194209
variable C6neg equal -1.77490697648915

# Reset box and simulation parameters
clear
# box tilt large
read_restart equil.res
Reading restart file ...
  restart file = 2 Aug 2023, LAMMPS = 2 Aug 2023
  restoring atom style full from restart
  triclinic box = (0 0 0) to (14.6913 12.723 15.9631) with tilt (-7.3456 0 0)
  pair style reaxff stores no restart info
  243 atoms
Finding 1-2 1-3 1-4 neighbors ...
     0 = max # of 1-2 neighbors
     0 = max # of 1-3 neighbors
     0 = max # of 1-4 neighbors
     1 = max # of special neighbors
  read_restart CPU = 0.003 seconds
include ff.mod.lmp
# Setup forcefield, system
# undefine any fix ave/* fix before using reset_timestep
if "$(is_defined(fix,avgp))" then "unfix avgp"
reset_timestep 0

# Assign the force field
pair_style reaxff NULL safezone 3.0 mincap 150
# pair_coeff * * CHONSSi.ff O Si
# pair_coeff * * CHOSiNa.ff O Si
# pair_coeff * * SiOCHN_2018.ff O Si
# pair_coeff * * PDMSDecomp.ff Si O
pair_coeff * * CHOFe.ff O Si

# charge method for reaxff
fix myqeq all qeq/reaxff 1 0.0 10.0 1.0e-6 reaxff maxiter 400
# Setup neighbor style
neighbor        2 bin
neigh_modify    every 10 delay 0 check no

# Setup output
fix avgp all ave/time  10 10 100 c_thermo_press mode vector
thermo		100
thermo_style custom step temp pe press f_avgp[1] vol
thermo_modify norm no

# equilibration
fix 4 all nve
fix 5 all langevin 300 300 50 123456

# Positive deformation
variable delta equal 0.02*15.9631
variable deltaxy equal 0.02*xy
variable deltaxz equal 0.02*xz
variable deltayz equal 0.02*yz
change_box all yz delta 0.319262 remap units box
Changing box ...
  triclinic box = (0 0 0) to (14.6913 12.723 15.9631) with tilt (-7.3456 0 0.319262)

# Run positive deformation MD
# save trajectory
dump dump_pos4 all custom 100 dump/pos_deform4.lammpstrj id type x y z
run 3000
Step          Temp          PotEng         Press        f_avgp[1]        Volume
0   309.57385     -36492.441      118158.35      0              2983.7813
Averages over the last 16 of 31 rows, steps 1500 to 3000:
Temp PotEng Press f_avgp[1] Volume
309.655 -36702.6 13416.2 11814.7 2983.78
Loop time of 107.901 on 64 procs for 3000 steps with 243 atoms

undump dump_pos4

# Run equilibration
include ff.mod.lmp
# Setup forcefield, system
# undefine any fix ave/* fix before using reset_timestep
if "$(is_defined(fix,avgp))" then "unfix avgp"
unfix avgp
reset_timestep 0

# Assign the force field
pair_style reaxff NULL safezone 3.0 mincap 150
# pair_coeff * * CHONSSi.ff O Si
# pair_coeff * * CHOSiNa.ff O Si
# pair_coeff * * SiOCHN_2018.ff O Si
# pair_coeff * * PDMSDecomp.ff Si O
pair_coeff * * CHOFe.ff O Si

# charge method for reaxff
fix myqeq all qeq/reaxff 1 0.0 10.0 1.0e-6 reaxff maxiter 400
# Setup neighbor style
neighbor        2 bin
neigh_modify    every 10 delay 0 check no

# Setup output
fix avgp all ave/time  10 10 100 c_thermo_press mode vector
thermo		100
thermo_style custom step temp pe press f_avgp[1] vol
thermo_modify norm no

# equilibration
fix 4 all nve
fix 5 all langevin 300 300 50 123456

run 1000
Step          Temp          PotEng         Press        f_avgp[1]        Volume
0   276.89315     -36707.769      11186.91       0              2983.7813
Averages over the last 6 of 11 rows, steps 500 to 1000:
Temp PotEng Press f_avgp[1] Volume
300.886 -36704.1 12988.3 10679.3 2983.78
Loop time of 35.7521 on 64 procs for 1000 steps with 243 atoms

# Obtain new stress tensor
variable pxx1 equal f_avgp[1]
variable pyy1 equal f_avgp[2]
variable pzz1 equal f_avgp[3]
variable pxy1 equal f_avgp[4]
variable pxz1 equal f_avgp[5]
variable pyz1 equal f_avgp[6]

# Compute elastic constant from pressure tensor
# d1 = -[pxx1-pxx0]/[(]v_delta/v_len0] defined in input script
variable C1pos equal 34.83884172963
variable C2pos equal 3.55244958299311
variable C3pos equal 24.462945757692
variable C4pos equal 32.7634725217799
variable C5pos equal 0.28224616886771
variable C6pos equal 5.84479452322437

# Combine positive and negative
variable C14 equal 0.5*(-33.0056210639293+34.83884172963)
variable C24 equal 0.5*(-27.7122196905306+3.55244958299311)
variable C34 equal 0.5*(-38.0597156180446+24.462945757692)
variable C44 equal 0.5*(26.1202661617096+32.7634725217799)
variable C54 equal 0.5*(-0.412564617194209+0.28224616886771)
variable C64 equal 0.5*(-1.77490697648915+5.84479452322437)

# Delete dir to make sure it is not reused
variable dir delete
# uxz Perturbation
variable dir equal 5
include displace.mod.lmp
# Find which reference length to use
variable len0 equal 15.9631

# Reset box and simulation parameters
clear
# box tilt large
read_restart equil.res
Reading restart file ...
  restart file = 2 Aug 2023, LAMMPS = 2 Aug 2023
  restoring atom style full from restart
  triclinic box = (0 0 0) to (14.6913 12.723 15.9631) with tilt (-7.3456 0 0)
  pair style reaxff stores no restart info
  243 atoms
Finding 1-2 1-3 1-4 neighbors ...
     0 = max # of 1-2 neighbors
     0 = max # of 1-3 neighbors
     0 = max # of 1-4 neighbors
     1 = max # of special neighbors
  read_restart CPU = 0.003 seconds
include ff.mod.lmp
# Setup forcefield, system
# undefine any fix ave/* fix before using reset_timestep
if "$(is_defined(fix,avgp))" then "unfix avgp"
reset_timestep 0

# Assign the force field
pair_style reaxff NULL safezone 3.0 mincap 150
# pair_coeff * * CHONSSi.ff O Si
# pair_coeff * * CHOSiNa.ff O Si
# pair_coeff * * SiOCHN_2018.ff O Si
# pair_coeff * * PDMSDecomp.ff Si O
pair_coeff * * CHOFe.ff O Si

# charge method for reaxff
fix myqeq all qeq/reaxff 1 0.0 10.0 1.0e-6 reaxff maxiter 400
# Setup neighbor style
neighbor        2 bin
neigh_modify    every 10 delay 0 check no

# Setup output
fix avgp all ave/time  10 10 100 c_thermo_press mode vector
thermo		100
thermo_style custom step temp pe press f_avgp[1] vol
thermo_modify norm no

# equilibration
fix 4 all nve
fix 5 all langevin 300 300 50 123456

# Negative deformation
variable delta equal -0.02*15.9631
variable deltaxy equal -0.02*xy
variable deltaxz equal -0.02*xz
variable deltayz equal -0.02*yz
change_box all xz delta -0.319262 remap units box
Changing box ...
  triclinic box = (0 0 0) to (14.6913 12.723 15.9631) with tilt (-7.3456 -0.319262 0)

# Run MD for Negative deformation
# save trajectory
dump dump_neg5 all custom 100 dump/neg_deform5.lammpstrj id type x y z
run 3000
Step          Temp          PotEng         Press        f_avgp[1]        Volume
0   309.57385     -36549.977      103784.27      0              2983.7813
Averages over the last 16 of 31 rows, steps 1500 to 3000:
Temp PotEng Press f_avgp[1] Volume
300.43 -36712 13323.7 10964 2983.78
Loop time of 107.621 on 64 procs for 3000 steps with 243 atoms

undump dump_neg5

# Run equilibration
include ff.mod.lmp
# Setup forcefield, system
# undefine any fix ave/* fix before using reset_timestep
if "$(is_defined(fix,avgp))" then "unfix avgp"
unfix avgp
reset_timestep 0

# Assign the force field
pair_style reaxff NULL safezone 3.0 mincap 150
# pair_coeff * * CHONSSi.ff O Si
# pair_coeff * * CHOSiNa.ff O Si
# pair_coeff * * SiOCHN_2018.ff O Si
# pair_coeff * * PDMSDecomp.ff Si O
pair_coeff * * CHOFe.ff O Si

# charge method for reaxff
fix myqeq all qeq/reaxff 1 0.0 10.0 1.0e-6 reaxff maxiter 400
# Setup neighbor style
neighbor        2 bin
neigh_modify    every 10 delay 0 check no

# Setup output
fix avgp all ave/time  10 10 100 c_thermo_press mode vector
thermo		100
thermo_style custom step temp pe press f_avgp[1] vol
thermo_modify norm no

# equilibration
fix 4 all nve
fix 5 all langevin 300 300 50 123456

run 1000
Step          Temp          PotEng         Press        f_avgp[1]        Volume
0   290.30503     -36720.253      16262.041      0              2983.7813
Averages over the last 6 of 11 rows, steps 500 to 1000:
Temp PotEng Press f_avgp[1] Volume
305.751 -36713.1 9390.31 7093.67 2983.78
Loop time of 36.0615 on 64 procs for 1000 steps with 243 atoms

# Obtain new stress tensor Negative deformation
variable pxx1 equal f_avgp[1]
variable pyy1 equal f_avgp[2]
variable pzz1 equal f_avgp[3]
variable pxy1 equal f_avgp[4]
variable pxz1 equal f_avgp[5]
variable pyz1 equal f_avgp[6]

# Compute elastic constant from pressure
# d1 = -[pxx1-pxx0]/[(]v_delta/v_len0] defined in input script
variable C1neg equal -40.3668612070493
variable C2neg equal -37.0663009982031
variable C3neg equal -46.7682976008606
variable C4neg equal -1.04912579691032
variable C5neg equal 26.1320887768775
variable C6neg equal -1.29144726876624

# Reset box and simulation parameters
clear
# box tilt large
read_restart equil.res
Reading restart file ...
  restart file = 2 Aug 2023, LAMMPS = 2 Aug 2023
  restoring atom style full from restart
  triclinic box = (0 0 0) to (14.6913 12.723 15.9631) with tilt (-7.3456 0 0)
  pair style reaxff stores no restart info
  243 atoms
Finding 1-2 1-3 1-4 neighbors ...
     0 = max # of 1-2 neighbors
     0 = max # of 1-3 neighbors
     0 = max # of 1-4 neighbors
     1 = max # of special neighbors
  read_restart CPU = 0.005 seconds
include ff.mod.lmp
# Setup forcefield, system
# undefine any fix ave/* fix before using reset_timestep
if "$(is_defined(fix,avgp))" then "unfix avgp"
reset_timestep 0

# Assign the force field
pair_style reaxff NULL safezone 3.0 mincap 150
# pair_coeff * * CHONSSi.ff O Si
# pair_coeff * * CHOSiNa.ff O Si
# pair_coeff * * SiOCHN_2018.ff O Si
# pair_coeff * * PDMSDecomp.ff Si O
pair_coeff * * CHOFe.ff O Si

# charge method for reaxff
fix myqeq all qeq/reaxff 1 0.0 10.0 1.0e-6 reaxff maxiter 400
# Setup neighbor style
neighbor        2 bin
neigh_modify    every 10 delay 0 check no

# Setup output
fix avgp all ave/time  10 10 100 c_thermo_press mode vector
thermo		100
thermo_style custom step temp pe press f_avgp[1] vol
thermo_modify norm no

# equilibration
fix 4 all nve
fix 5 all langevin 300 300 50 123456

# Positive deformation
variable delta equal 0.02*15.9631
variable deltaxy equal 0.02*xy
variable deltaxz equal 0.02*xz
variable deltayz equal 0.02*yz
change_box all xz delta 0.319262 remap units box
Changing box ...
  triclinic box = (0 0 0) to (14.6913 12.723 15.9631) with tilt (-7.3456 0.319262 0)

# Run positive deformation MD
# save trajectory
dump dump_pos5 all custom 100 dump/pos_deform5.lammpstrj id type x y z
run 3000
Step          Temp          PotEng         Press        f_avgp[1]        Volume
0   309.57385     -36565.445      89997.449      0              2983.7813
Averages over the last 16 of 31 rows, steps 1500 to 3000:
Temp PotEng Press f_avgp[1] Volume
300.269 -36711.8 12607.4 9543.88 2983.78
Loop time of 103.62 on 64 procs for 3000 steps with 243 atoms

undump dump_pos5

# Run equilibration
include ff.mod.lmp
# Setup forcefield, system
# undefine any fix ave/* fix before using reset_timestep
if "$(is_defined(fix,avgp))" then "unfix avgp"
unfix avgp
reset_timestep 0

# Assign the force field
pair_style reaxff NULL safezone 3.0 mincap 150
# pair_coeff * * CHONSSi.ff O Si
# pair_coeff * * CHOSiNa.ff O Si
# pair_coeff * * SiOCHN_2018.ff O Si
# pair_coeff * * PDMSDecomp.ff Si O
pair_coeff * * CHOFe.ff O Si

# charge method for reaxff
fix myqeq all qeq/reaxff 1 0.0 10.0 1.0e-6 reaxff maxiter 400
# Setup neighbor style
neighbor        2 bin
neigh_modify    every 10 delay 0 check no

# Setup output
fix avgp all ave/time  10 10 100 c_thermo_press mode vector
thermo		100
thermo_style custom step temp pe press f_avgp[1] vol
thermo_modify norm no

# equilibration
fix 4 all nve
fix 5 all langevin 300 300 50 123456

run 1000
Step          Temp          PotEng         Press        f_avgp[1]        Volume
0   263.38177     -36720.945      11034.473      0              2983.7813
Averages over the last 6 of 11 rows, steps 500 to 1000:
Temp PotEng Press f_avgp[1] Volume
301.577 -36713.8 13951.6 8304.16 2983.78
Loop time of 32.0311 on 64 procs for 1000 steps with 243 atoms

# Obtain new stress tensor
variable pxx1 equal f_avgp[1]
variable pyy1 equal f_avgp[2]
variable pzz1 equal f_avgp[3]
variable pxy1 equal f_avgp[4]
variable pxz1 equal f_avgp[5]
variable pyz1 equal f_avgp[6]

# Compute elastic constant from pressure tensor
# d1 = -[pxx1-pxx0]/[(]v_delta/v_len0] defined in input script
variable C1pos equal 38.9256464587674
variable C2pos equal 37.5536370213992
variable C3pos equal 51.1793810673903
variable C4pos equal 9.03301450145372
variable C5pos equal 32.2774069229869
variable C6pos equal -2.54826552682167

# Combine positive and negative
variable C15 equal 0.5*(-40.3668612070493+38.9256464587674)
variable C25 equal 0.5*(-37.0663009982031+37.5536370213992)
variable C35 equal 0.5*(-46.7682976008606+51.1793810673903)
variable C45 equal 0.5*(-1.04912579691032+9.03301450145372)
variable C55 equal 0.5*(26.1320887768775+32.2774069229869)
variable C65 equal 0.5*(-1.29144726876624+-2.54826552682167)

# Delete dir to make sure it is not reused
variable dir delete
# uxy Perturbation
variable dir equal 6
include displace.mod.lmp
# Find which reference length to use
variable len0 equal 12.723

# Reset box and simulation parameters
clear
# box tilt large
read_restart equil.res
Reading restart file ...
  restart file = 2 Aug 2023, LAMMPS = 2 Aug 2023
  restoring atom style full from restart
  triclinic box = (0 0 0) to (14.6913 12.723 15.9631) with tilt (-7.3456 0 0)
  pair style reaxff stores no restart info
  243 atoms
Finding 1-2 1-3 1-4 neighbors ...
     0 = max # of 1-2 neighbors
     0 = max # of 1-3 neighbors
     0 = max # of 1-4 neighbors
     1 = max # of special neighbors
  read_restart CPU = 0.003 seconds
include ff.mod.lmp
# Setup forcefield, system
# undefine any fix ave/* fix before using reset_timestep
if "$(is_defined(fix,avgp))" then "unfix avgp"
reset_timestep 0

# Assign the force field
pair_style reaxff NULL safezone 3.0 mincap 150
# pair_coeff * * CHONSSi.ff O Si
# pair_coeff * * CHOSiNa.ff O Si
# pair_coeff * * SiOCHN_2018.ff O Si
# pair_coeff * * PDMSDecomp.ff Si O
pair_coeff * * CHOFe.ff O Si

# charge method for reaxff
fix myqeq all qeq/reaxff 1 0.0 10.0 1.0e-6 reaxff maxiter 400
# Setup neighbor style
neighbor        2 bin
neigh_modify    every 10 delay 0 check no

# Setup output
fix avgp all ave/time  10 10 100 c_thermo_press mode vector
thermo		100
thermo_style custom step temp pe press f_avgp[1] vol
thermo_modify norm no

# equilibration
fix 4 all nve
fix 5 all langevin 300 300 50 123456

# Negative deformation
variable delta equal -0.02*12.723
variable deltaxy equal -0.02*xy
variable deltaxz equal -0.02*xz
variable deltayz equal -0.02*yz
change_box all xy delta -0.25446 remap units box
Changing box ...
  triclinic box = (0 0 0) to (14.6913 12.723 15.9631) with tilt (-7.60006 0 0)

# Run MD for Negative deformation
# save trajectory
dump dump_neg6 all custom 100 dump/neg_deform6.lammpstrj id type x y z
run 3000
Step          Temp          PotEng         Press        f_avgp[1]        Volume
0   309.57385     -36666.58       31073.045      0              2983.7813
Averages over the last 16 of 31 rows, steps 1500 to 3000:
Temp PotEng Press f_avgp[1] Volume
302.029 -36713.3 11314.1 10927.5 2983.78
Loop time of 81.5274 on 64 procs for 3000 steps with 243 atoms

undump dump_neg6

# Run equilibration
include ff.mod.lmp
# Setup forcefield, system
# undefine any fix ave/* fix before using reset_timestep
if "$(is_defined(fix,avgp))" then "unfix avgp"
unfix avgp
reset_timestep 0

# Assign the force field
pair_style reaxff NULL safezone 3.0 mincap 150
# pair_coeff * * CHONSSi.ff O Si
# pair_coeff * * CHOSiNa.ff O Si
# pair_coeff * * SiOCHN_2018.ff O Si
# pair_coeff * * PDMSDecomp.ff Si O
pair_coeff * * CHOFe.ff O Si

# charge method for reaxff
fix myqeq all qeq/reaxff 1 0.0 10.0 1.0e-6 reaxff maxiter 400
# Setup neighbor style
neighbor        2 bin
neigh_modify    every 10 delay 0 check no

# Setup output
fix avgp all ave/time  10 10 100 c_thermo_press mode vector
thermo		100
thermo_style custom step temp pe press f_avgp[1] vol
thermo_modify norm no

# equilibration
fix 4 all nve
fix 5 all langevin 300 300 50 123456

run 1000
Step          Temp          PotEng         Press        f_avgp[1]        Volume
0   301.65403     -36700.87       2956.4412      0              2983.7813
Averages over the last 6 of 11 rows, steps 500 to 1000:
Temp PotEng Press f_avgp[1] Volume
300.046 -36708.6 12974.5 10005.1 2983.78
Loop time of 26.6759 on 64 procs for 1000 steps with 243 atoms

# Obtain new stress tensor Negative deformation
variable pxx1 equal f_avgp[1]
variable pyy1 equal f_avgp[2]
variable pzz1 equal f_avgp[3]
variable pxy1 equal f_avgp[4]
variable pxz1 equal f_avgp[5]
variable pyz1 equal f_avgp[6]

# Compute elastic constant from pressure
# d1 = -[pxx1-pxx0]/[(]v_delta/v_len0] defined in input script
variable C1neg equal -20.2263447897024
variable C2neg equal 2.25039422017455
variable C3neg equal -20.6245308021521
variable C4neg equal 1.24287827961288
variable C5neg equal -1.4704391221159
variable C6neg equal 18.5487240174043

# Reset box and simulation parameters
clear
# box tilt large
read_restart equil.res
Reading restart file ...
  restart file = 2 Aug 2023, LAMMPS = 2 Aug 2023
  restoring atom style full from restart
  triclinic box = (0 0 0) to (14.6913 12.723 15.9631) with tilt (-7.3456 0 0)
  pair style reaxff stores no restart info
  243 atoms
Finding 1-2 1-3 1-4 neighbors ...
     0 = max # of 1-2 neighbors
     0 = max # of 1-3 neighbors
     0 = max # of 1-4 neighbors
     1 = max # of special neighbors
  read_restart CPU = 0.002 seconds
include ff.mod.lmp
# Setup forcefield, system
# undefine any fix ave/* fix before using reset_timestep
if "$(is_defined(fix,avgp))" then "unfix avgp"
reset_timestep 0

# Assign the force field
pair_style reaxff NULL safezone 3.0 mincap 150
# pair_coeff * * CHONSSi.ff O Si
# pair_coeff * * CHOSiNa.ff O Si
# pair_coeff * * SiOCHN_2018.ff O Si
# pair_coeff * * PDMSDecomp.ff Si O
pair_coeff * * CHOFe.ff O Si

# charge method for reaxff
fix myqeq all qeq/reaxff 1 0.0 10.0 1.0e-6 reaxff maxiter 400
# Setup neighbor style
neighbor        2 bin
neigh_modify    every 10 delay 0 check no

# Setup output
fix avgp all ave/time  10 10 100 c_thermo_press mode vector
thermo		100
thermo_style custom step temp pe press f_avgp[1] vol
thermo_modify norm no

# equilibration
fix 4 all nve
fix 5 all langevin 300 300 50 123456

# Positive deformation
variable delta equal 0.02*12.723
variable deltaxy equal 0.02*xy
variable deltaxz equal 0.02*xz
variable deltayz equal 0.02*yz
change_box all xy delta 0.25446 remap units box
Changing box ...
  triclinic box = (0 0 0) to (14.6913 12.723 15.9631) with tilt (-7.09114 0 0)

# Run positive deformation MD
# save trajectory
dump dump_pos6 all custom 100 dump/pos_deform6.lammpstrj id type x y z
run 3000
Step          Temp          PotEng         Press        f_avgp[1]        Volume
0   309.57385     -36610.585      77377.602      0              2983.7813
Averages over the last 16 of 31 rows, steps 1500 to 3000:
Temp PotEng Press f_avgp[1] Volume
289.76 -36715.1 13796.9 11129.4 2983.78
Loop time of 81.5138 on 64 procs for 3000 steps with 243 atoms

undump dump_pos6

# Run equilibration
include ff.mod.lmp
# Setup forcefield, system
# undefine any fix ave/* fix before using reset_timestep
if "$(is_defined(fix,avgp))" then "unfix avgp"
unfix avgp
reset_timestep 0

# Assign the force field
pair_style reaxff NULL safezone 3.0 mincap 150
# pair_coeff * * CHONSSi.ff O Si
# pair_coeff * * CHOSiNa.ff O Si
# pair_coeff * * SiOCHN_2018.ff O Si
# pair_coeff * * PDMSDecomp.ff Si O
pair_coeff * * CHOFe.ff O Si

# charge method for reaxff
fix myqeq all qeq/reaxff 1 0.0 10.0 1.0e-6 reaxff maxiter 400
# Setup neighbor style
neighbor        2 bin
neigh_modify    every 10 delay 0 check no

# Setup output
fix avgp all ave/time  10 10 100 c_thermo_press mode vector
thermo		100
thermo_style custom step temp pe press f_avgp[1] vol
thermo_modify norm no

# equilibration
fix 4 all nve
fix 5 all langevin 300 300 50 123456

run 1000
Step          Temp          PotEng         Press        f_avgp[1]        Volume
0   296.73809     -36693.418      12684.811      0              2983.7813
Averages over the last 6 of 11 rows, steps 500 to 1000:
Temp PotEng Press f_avgp[1] Volume
295.499 -36712.5 13352.3 12407.3 2983.78
Loop time of 26.952 on 64 procs for 1000 steps with 243 atoms

# Obtain new stress tensor
variable pxx1 equal f_avgp[1]
variable pyy1 equal f_avgp[2]
variable pzz1 equal f_avgp[3]
variable pxy1 equal f_avgp[4]
variable pxz1 equal f_avgp[5]
variable pyz1 equal f_avgp[6]

# Compute elastic constant from pressure tensor
# d1 = -[pxx1-pxx0]/[(]v_delta/v_len0] defined in input script
variable C1pos equal 16.8421440527392
variable C2pos equal 40.5917906795738
variable C3pos equal 47.8364121187792
variable C4pos equal -6.46931610799871
variable C5pos equal -22.4419070190945
variable C6pos equal 20.3381760927227

# Combine positive and negative
variable C16 equal 0.5*(-20.2263447897024+16.8421440527392)
variable C26 equal 0.5*(2.25039422017455+40.5917906795738)
variable C36 equal 0.5*(-20.6245308021521+47.8364121187792)
variable C46 equal 0.5*(1.24287827961288+-6.46931610799871)
variable C56 equal 0.5*(-1.4704391221159+-22.4419070190945)
variable C66 equal 0.5*(18.5487240174043+20.3381760927227)

# Delete dir to make sure it is not reused
variable dir delete

# Calc and output
include calc.mod.lmp
variable C11all equal 109.380866788906
variable C22all equal 92.6369517934171
variable C33all equal 83.4272817309865

variable C44all equal 29.4418693417448
variable C55all equal 29.2047478499322
variable C66all equal 19.4434500550635

variable C12all equal 0.5*(34.2751702481946+45.4230214168782)
variable C13all equal 0.5*(38.4800651396225+41.2730277896992)
variable C23all equal 0.5*(17.8532284441145+20.0481476982556)

variable C14all equal 0.5*(0.91661033285035+6.41663885127431)
variable C15all equal 0.5*(-0.720607374140947+-10.7725110874244)
variable C16all equal 0.5*(-1.6921003684816+7.02269401080534)

variable C24all equal 0.5*(-12.0798850537687+1.21980392871295)
variable C25all equal 0.5*(0.24366801159805+-9.57805651670343)
variable C26all equal 0.5*(21.4210924498742+-9.81942758579227)

variable C34all equal 0.5*(-6.7983849301763+4.85684735605934)
variable C35all equal 0.5*(2.20554173326485+-0.0267634655148505)
variable C36all equal 0.5*(13.6059406583135+-2.53032479582648)

variable C45all equal 0.5*(3.9919443522717+-0.0651592241632495)
variable C46all equal 0.5*(-2.61321891419291+2.03494377336761)
variable C56all equal 0.5*(-11.9561730706052+-1.91985639779395)
