LAMMPS (2 Aug 2023 - Update 2)

variable T index 300 400 500  #
label T_loop

# Initialization
units           real
dimension       3
boundary        p p p
atom_style      full
timestep        0.5   # fs

variable       Tl equal 300.0   # low temperature
variable       Th equal 2200.0  # high temperature
variable       Td equal 50.0  # damping time
variable       P equal 1.0  # pressure
variable       Ph equal 1.0  # pressure
variable       Pd equal 10*50

variable       nevery equal 10
variable       nrepeat equal 10
variable       nthermo equal 10*10
variable       nrun equal 100

variable       nequil equal 50*100
variable       nequil_ht equal 50*100
variable       nheat equal 20*100
variable       ncool equal 20*100

# Read the initial sctructure
# box tilt large
variable structure string 333U-50C-5
read_data       333U-50C-5.data
Reading data file ...
  triclinic box = (0 0 0) to (15.6782 14.2194 17.6383) with tilt (-7.0409 -1.0144 0.675)
  reading atoms ...
  350 atoms
Finding 1-2 1-3 1-4 neighbors ...
     0 = max # of 1-2 neighbors
     0 = max # of 1-3 neighbors
     0 = max # of 1-4 neighbors
     1 = max # of special neighbors

# Assign the force field
pair_style reaxff NULL safezone 3.0 mincap 150
# pair_coeff * * CHONSSi.ff O Si
# pair_coeff * * CHOSiNa.ff O Si
# pair_coeff * * SiOCHN_2018.ff C H O Si
# pair_coeff * * PDMSDecomp.ff Si O
pair_coeff * * CHONSi.ff C H O Si
# pair_coeff * * CHOFe.ff O Si

fix myqeq all qeq/reaxff 1 0.0 10.0 1.0e-6 reaxff maxiter 400

neighbor        2 bin
neigh_modify    every 10 delay 0 check no

# Print system info
thermo          100
thermo_style    custom step temp press density pe etotal

# Energy minimization
print "##### Minimization starts.##### "
##### Minimization starts.#####
# fix min1 all nve
minimize 1.0e-6 1.0e-6 100 1000

CITE-CITE-CITE-CITE-CITE-CITE-CITE-CITE-CITE-CITE-CITE-CITE-CITE

Your simulation uses code contributions which should be cited:

- pair reaxff command: doi:10.1016/j.parco.2011.08.005

@Article{Aktulga12,
 author = {H. M. Aktulga and J. C. Fogarty and S. A. Pandit and A. Y. Grama},
 title = {Parallel Reactive Molecular Dynamics: {N}umerical Methods and Algorithmic Techniques},
 journal = {Parallel Computing},
 year =    2012,
 volume =  38,
 number =  {4--5},
 pages =   {245--259}
}

- fix qeq/reaxff command: doi:10.1016/j.parco.2011.08.005

@Article{Aktulga12,
 author = {H. M. Aktulga and J. C. Fogarty and S. A. Pandit and A. Y. Grama},
 title = {Parallel Reactive Molecular Dynamics: {N}umerical Methods and Algorithmic Techniques},
 journal = {Parallel Computing},
 year =    2012,
 volume =  38,
 pages =   {245--259}
}

CITE-CITE-CITE-CITE-CITE-CITE-CITE-CITE-CITE-CITE-CITE-CITE-CITE

Step          Temp          Press         Density         PotEng         TotEng
0   0              98861.431      1.6516858     -38963.433     -38963.433
Loop time of 1.36727 on 12 procs for 17 steps with 350 atoms

Minimization stats:
  Stopping criterion = energy tolerance
  Energy initial, next-to-last, final =
  Force two-norm initial, final = 2132.8673 199.02297
  Force max component initial, final = 293.99991 78.99371
  Final line search alpha, max atom move = 0.00012065287 0.0095308181
  Iterations, force evaluations = 17 34

# unfix min1
# Save the optimized structure
write_data 333U-50C-5_opt.data
System init for write_data ...

reset_timestep 0
# out put bonds and species information
fix bondinfo all reaxff/bonds 100 bonds/bonds.reaxff
fix speciesinfo all reaxff/species 10 10 100 bonds/species.out
# Save trajectory
#dump dump1 all custom 500 dump_opt.lammpstrj id type x y z q
dump dump1 all custom 100 dump_all.lammpstrj   id   type   x   y   z   q

# compute MSD and RDF
compute msd1 all msd
fix myMSD all ave/time 10 10 100 c_msd1[1] c_msd1[2] c_msd1[3] c_msd1[4] file msd.out
compute rdf1 all rdf 100 cutoff 10.0
fix myRDF all ave/time 10 10 100 c_rdf1[*] file rdf.out mode vector

# equilibration at low T
print "##### Equilibration starts.##### "
##### Equilibration starts.#####
velocity        all create 300 12345
fix             equil1 all npt temp 300 300 50 tri 1 1 500
# 1 ps = 1e3 fs / 0.5 fs = 2e3 steps = 20 nruns
run             5000
Step          Temp          Press         Density         PotEng         TotEng
0   300           -1647.9496      1.6516858     -40803.845     -40491.754
Averages over the last 26 of 51 rows, steps 2500 to 5000:
Temp Press Density PotEng TotEng
298.42 -2210.14 1.68844 -41153 -40842.5
Loop time of 189.055 on 12 procs for 5000 steps with 350 atoms

# Heat to high T
print "##### Heat starts.##### "
##### Heat starts.#####
unfix           equil1
fix             heat1 all nvt temp 300 2200 50
# 1 ps = 1e3 fs / 0.5 fs = 2e3 steps = 20 nruns
run             2000
Step          Temp          Press         Density         PotEng         TotEng
5000   326.77759     -5221.106       1.6964105     -41182.069     -40842.121
Averages over the last 11 of 21 rows, steps 6000 to 7000:
Temp Press Density PotEng TotEng
1705.81 15753.3 1.69641 -39428.3 -37653.7
Loop time of 81.1902 on 12 procs for 2000 steps with 350 atoms

# middle equilibration at high T
print "##### Middle equilibration starts.##### "
##### Middle equilibration starts.#####
velocity        all create 300 12345
unfix             heat1
fix             equil2 all nvt temp 2200 2200 50
# 1 ps = 1e3 fs / 0.5 fs = 2e3 steps = 20 nruns
run             5000
Step          Temp          Press         Density         PotEng         TotEng
7000   300           -15342.65       1.6964105     -38791.297     -38479.206
Averages over the last 26 of 51 rows, steps 9500 to 12000:
Temp Press Density PotEng TotEng
2231.75 19733.6 1.69641 -38573.9 -36252.2
Loop time of 207.878 on 12 procs for 5000 steps with 350 atoms

# cool down to low T
print "##### Cool starts.##### "
##### Cool starts.#####
unfix           equil2
fix             cool1 all nvt temp 2200 300 50
# 1 ps = 1e3 fs / 0.5 fs = 2e3 steps = 20 nruns
run             2000
Step          Temp          Press         Density         PotEng         TotEng
12000   2128.3871      20039.676      1.6964105     -38633.218     -36419.051
Averages over the last 11 of 21 rows, steps 13000 to 14000:
Temp Press Density PotEng TotEng
913.738 9829.1 1.69641 -40383.2 -39432.6
Loop time of 79.449 on 12 procs for 2000 steps with 350 atoms

# final equilibration at low T
print "##### final equilibration starts.##### "
##### final equilibration starts.#####
unfix             cool1
fix             equil3 all npt temp 300 300 50 tri 1 1 500
# 1 ps = 1e3 fs / 0.5 fs = 2e3 steps = 20 nruns
run             5000
Step          Temp          Press         Density         PotEng         TotEng
14000   484.4112       6271.8488      1.6964105     -40974.179     -40470.245
Averages over the last 26 of 51 rows, steps 16500 to 19000:
Temp Press Density PotEng TotEng
299.21 -1299.43 1.64897 -41223.9 -40912.6
Loop time of 183.578 on 12 procs for 5000 steps with 350 atoms

write_data  333U-50C-5-an.data
System init for write_data ...
##### 333U-50C-5 Final Density: 1.6569820064993907582 #####

# next temperature
# clear
# next T
# jump SELF T_loop
