LAMMPS (2 Aug 2023 - Update 2)

# variable T index 300 400 500  #
# label T_loop

# Initialization
units           real
dimension       3
boundary        p p p
atom_style      full
timestep        0.5   # fs

variable       Tl equal 300.0   # low temperature
variable       Th equal 2100.0  # high temperature
variable       Td equal 50.0  # damping time
variable       P equal 1.0  # pressure
variable       Ph equal 1.0  # pressure
variable       Pd equal 10*50

variable       nevery equal 10
variable       nrepeat equal 10
variable       nthermo equal 10*10
variable       nrun equal 100

variable       nequil equal 50*100
variable       nheat equal (2100-300)*100
# variable       nheat equal 500   # 1800
variable FF string "SiOCHN_2018.ff C H O Si"          # force field args for pair_coeff
# pair_coeff * * CHONSSi.ff C H O Si
# pair_coeff * * CHOSiNa.ff C H O Si
# pair_coeff * * SiOCHN_2018.ff C H O Si
# pair_coeff * * PDMSDecomp.ff C H O Si
# pair_coeff * * CHONSi.ff C H O Si
# pair_coeff * * CHOFe.ff O Si

# Read the initial sctructure
# box tilt large
variable structure string 333-RV-32

read_data       333-RV-32.data
Reading data file ...
  triclinic box = (0 0 0) to (15.7087 13.0868 17.5248) with tilt (-8.2042 -0.1458 -2.0056)
  reading atoms ...
  331 atoms
Finding 1-2 1-3 1-4 neighbors ...
     0 = max # of 1-2 neighbors
     0 = max # of 1-3 neighbors
     0 = max # of 1-4 neighbors
     1 = max # of special neighbors

# Assign the force field
pair_style reaxff NULL safezone 3.0 mincap 150
# pair_coeff * * CHONSSi.ff O Si
# pair_coeff * * CHOSiNa.ff O Si
# pair_coeff * * SiOCHN_2018.ff C H O Si
# pair_coeff * * PDMSDecomp.ff Si O
pair_coeff * * CHONSi.ff C H O Si
# pair_coeff * * CHOFe.ff O Si

fix myqeq all qeq/reaxff 1 0.0 10.0 1.0e-6 reaxff maxiter 400

neighbor        2 bin
neigh_modify    every 10 delay 0 check yes

# Energy minimization
print "##### Minimization starts.##### "
##### Minimization starts.#####
# fix min1 all nve
minimize 1.0e-6 1.0e-6 100 1000

CITE-CITE-CITE-CITE-CITE-CITE-CITE-CITE-CITE-CITE-CITE-CITE-CITE

Your simulation uses code contributions which should be cited:

- pair reaxff command: doi:10.1016/j.parco.2011.08.005

@Article{Aktulga12,
 author = {H. M. Aktulga and J. C. Fogarty and S. A. Pandit and A. Y. Grama},
 title = {Parallel Reactive Molecular Dynamics: {N}umerical Methods and Algorithmic Techniques},
 journal = {Parallel Computing},
 year =    2012,
 volume =  38,
 number =  {4--5},
 pages =   {245--259}
}

- fix qeq/reaxff command: doi:10.1016/j.parco.2011.08.005

@Article{Aktulga12,
 author = {H. M. Aktulga and J. C. Fogarty and S. A. Pandit and A. Y. Grama},
 title = {Parallel Reactive Molecular Dynamics: {N}umerical Methods and Algorithmic Techniques},
 journal = {Parallel Computing},
 year =    2012,
 volume =  38,
 pages =   {245--259}
}

CITE-CITE-CITE-CITE-CITE-CITE-CITE-CITE-CITE-CITE-CITE-CITE-CITE

Step          Temp          E_pair         E_mol          TotEng         Press
0   0             -34729.82       0             -34729.82       141055.58
Loop time of 5.49589 on 12 procs for 11 steps with 331 atoms

Minimization stats:
  Stopping criterion = energy tolerance
  Energy initial, next-to-last, final =
  Force two-norm initial, final = 1956.832 350.68553
  Force max component initial, final = 221.80846 87.446417
  Final line search alpha, max atom move = 0.0015396929 0.13464063
  Iterations, force evaluations = 11 21

# unfix min1
# Save the optimized structure
write_data 333-RV-32_opt.data
System init for write_data ...

# Print system info
thermo          100
thermo_style    custom step temp press density vol pe etotal

reset_timestep 0

# equilibration at low T
print "##### Equilibration starts.##### "
##### Equilibration starts.#####
velocity        all create 300 12345
fix             equil1 all npt temp 300 300 50 tri 1 1 500
# 1 ps = 1e3 fs / 0.5 fs = 2e3 steps = 20 nruns
# Save trajectory
dump dump1 all custom 100 dump/dump_eq.lammpstrj id type x y z q
run             5000
Step          Temp          Press         Density         Volume         PotEng         TotEng
0   300            5903.2736      1.400369       3602.6891     -36001.794     -35706.694
Averages over the last 26 of 51 rows, steps 2500 to 5000:
Temp Press Density Volume PotEng TotEng
303.631 -1308.49 1.36223 3703.76 -36525.6 -36226.9
Loop time of 1173.6 on 12 procs for 5000 steps with 331 atoms

undump dump1
reset_timestep  0

# Heat to high T
print "##### Heat starts.##### "
##### Heat starts.#####
# out put bonds and species information
fix bondinfo all reaxff/bonds 100 bonds/bonds.reaxff

# compute MSD and RDF
compute msd1 all msd
fix myMSD all ave/time 100 1 100 c_msd1[1] c_msd1[2] c_msd1[3] c_msd1[4] c_thermo_temp     file msd.out     title2 "# TimeStep MSD_X MSD_Y MSD_Z MSD_Total Temperture"
# C-C C-Si Si-O C-H Si-Si
compute rdf1 all rdf 150 1 1 1 4 3 4 1 2 4 4 cutoff 5.0
fix myRDF all ave/time 100 1 100 c_rdf1[*]     file rdf.out mode vector     title3 "# Row r g1(r) coor1(r) ..."

unfix           equil1
fix             heat1 all nvt temp 300 2100 50
thermo_style    custom step temp press pe etotal
dump dump2 all custom 100 dump/dump_heat.lammpstrj   id   type   x   y   z   q

run             180000
Step          Temp          Press          PotEng         TotEng
0   270.34709      9292.1401     -36524.587     -36258.655
Averages over the last 901 of 1801 rows, steps 90000 to 180000:
Temp Press PotEng TotEng
1649.32 9504.76 -35010.2 -33387.8
Loop time of 36646.2 on 12 procs for 180000 steps with 331 atoms

# final equilibration at low T
print "##### final equilibration starts.##### "
##### final equilibration starts.#####
unfix             heat1
fix             equil3 all nvt temp 300 300 50
# 1 ps = 1e3 fs / 0.5 fs = 2e3 steps = 20 nruns
run             5000
Step          Temp          Press          PotEng         TotEng
180000   2252.0187      28786.979     -34201.077     -31985.84
Averages over the last 26 of 51 rows, steps 182500 to 185000:
Temp Press PotEng TotEng
300.203 -5094.48 -36613.2 -36317.9
Loop time of 794.976 on 12 procs for 5000 steps with 331 atoms

write_data  333-RV-32-an.data
System init for write_data ...
##### 333-RV-32 Final Density: 1.3632458241012193056 #####
