LAMMPS (2 Aug 2023 - Update 2)
# Initialization
units           real
dimension       3
boundary        p p p
atom_style      full
timestep        0.5   # fs

# Define MD parameters
variable nevery equal 1000                  # sampling interval
variable nrepeat equal 1                 # number of samples
variable nfreq equal 1000*1
variable nthermo equal 1000/10
# 1 ps : 1e3 fs / 0.5 fs = 2e3 steps
variable nequil equal 10*100
variable temp equal 300.0                # temperature of initial sample
variable tdamp equal 50.0                 # time constant for thermostat
variable seed equal 123456                # seed for thermostat
variable ufac equal 1.01325e-4         # pressure unit conversion, from atm to Gpa
variable up equal 1.0                  # the deformation magnitude 0.01
variable FF string "SiOCHN_2018.ff C H O Si"          # force field args for pair_coeff
# pair_coeff * * CHONSSi.ff C H O Si
# pair_coeff * * CHOSiNa.ff C H O Si
# pair_coeff * * SiOCHN_2018.ff C H O Si
# pair_coeff * * PDMSDecomp.ff C H O Si
# pair_coeff * * CHONSi.ff C H O Si
# pair_coeff * * CHOFe.ff O Si

# Read the initial sctructure
# box tilt large
variable structure string ../0.lmpdata/333U-50C-5-vasp

read_data       ../0.lmpdata/333U-50C-5-vasp.data
Reading data file ...
  triclinic box = (0 0 0) to (15.6782 14.2194 17.6383) with tilt (-7.0409 -1.0144 0.675)
  reading atoms ...
  350 atoms
Finding 1-2 1-3 1-4 neighbors ...
     0 = max # of 1-2 neighbors
     0 = max # of 1-3 neighbors
     0 = max # of 1-4 neighbors
     1 = max # of special neighbors

# # Energy minimization
# print "*****Minimization starts.*****"
# dump dump_opt all custom 1 dump_opt.lammpstrj id type q x y z

# Assign the force field
pair_style reaxff NULL safezone 3.0 mincap 150
pair_coeff * * SiOCHN_2018.ff C H O Si
# charge method for reaxff
fix myqeq all qeq/reaxff 1 0.0 10.0 1.0e-6 reaxff maxiter 400
fix bondinfo all reaxff/bonds 100 bonds.reaxff

# minimize 1.0e-6 1.0e-6 100 1000
# min_style cg
# # Save the optimized structure

# undump dump_opt
velocity        all create 300 123456 dist gaussian

# Equilibration
include ff.mod.lmp
# Setup forcefield, system
# undefine any fix ave/* fix before using reset_timestep
if "$(is_defined(fix,avgp))" then "unfix avgp"
if "$(is_defined(fix,avgl))" then "unfix avgl"
reset_timestep 0

# Assign the force field
pair_style reaxff NULL safezone 3.0 mincap 150
pair_coeff * * SiOCHN_2018.ff C H O Si

# charge method for reaxff
fix myqeq all qeq/reaxff 1 0.0 10.0 1.0e-6 reaxff maxiter 400
# Setup neighbor style
neighbor        2 bin
neigh_modify    every 10 delay 0 check no

# Setup output
thermo		100
thermo_style custom step temp pe press vol lx ly lz
# thermo_style custom step vol lx ly lz yz xz xy
thermo_modify norm no
# thermo_modify line multi

# Sample pressure (and length vector)
fix avgp all ave/time  1000 1 1000 c_thermo_press mode vector
# variable lx equal lx
# variable ly equal ly
# variable lz equal lz

# nvt
fix fnvt all nvt temp 300 300 50

if "$(is_defined(fix,avgp))" then "unfix avgp"
unfix avgp
if "$(is_defined(fix,avgl))" then "unfix avgl"
thermo_style custom step temp pe press density vol

# compute MSD and RDF
compute msd1 all msd
fix myMSD all ave/time 1000 1 1000 c_msd1[1] c_msd1[2] c_msd1[3] c_msd1[4] c_thermo_temp     file msd.out     title2 "# TimeStep MSD_X MSD_Y MSD_Z MSD_Total Temperture"
# C-C C-Si Si-O C-H Si-Si
# compute rdf1 all rdf 80 1 1 1 4 3 4 1 2 4 4 cutoff 5.0
# compute rdf1 all rdf 150 * * 1 1  1 4  4 3  3 4 cutoff 5.0
compute rdf1 all rdf 200 * *  4 3  3 4 cutoff 5.0

fix myRDF all ave/time 1000 1 1000 c_rdf1[*]     file rdf.out mode vector     title3 "# Row r g1(r) coor1(r) ..."

run 1000

CITE-CITE-CITE-CITE-CITE-CITE-CITE-CITE-CITE-CITE-CITE-CITE-CITE

Your simulation uses code contributions which should be cited:

- pair reaxff command: doi:10.1016/j.parco.2011.08.005

@Article{Aktulga12,
 author = {H. M. Aktulga and J. C. Fogarty and S. A. Pandit and A. Y. Grama},
 title = {Parallel Reactive Molecular Dynamics: {N}umerical Methods and Algorithmic Techniques},
 journal = {Parallel Computing},
 year =    2012,
 volume =  38,
 number =  {4--5},
 pages =   {245--259}
}

- fix qeq/reaxff command: doi:10.1016/j.parco.2011.08.005

@Article{Aktulga12,
 author = {H. M. Aktulga and J. C. Fogarty and S. A. Pandit and A. Y. Grama},
 title = {Parallel Reactive Molecular Dynamics: {N}umerical Methods and Algorithmic Techniques},
 journal = {Parallel Computing},
 year =    2012,
 volume =  38,
 pages =   {245--259}
}

CITE-CITE-CITE-CITE-CITE-CITE-CITE-CITE-CITE-CITE-CITE-CITE-CITE

Step          Temp          PotEng         Press         Density         Volume
0   300           -30535.512      175786.22      1.6516858      3932.1873
Averages over the last 6 of 11 rows, steps 500 to 1000:
Temp PotEng Press Density Volume
292.689 -35772.5 -820.333 1.65169 3932.19
Loop time of 22.343 on 16 procs for 1000 steps with 350 atoms

# # Save the equilibrated structure
# undump dump_eq

# # use tmp to save initial length and tilt
# variable tmp equal lx
# variable tmp equal ly
# variable tmp equal lz

# variable tmp equal yz
# variable tmp equal xz
# variable tmp equal xy

# # Write restart
# write_restart equil.res

# # dir: direction
# # uxx Perturbation
# variable dir equal 1
# include displace.mod.lmp
# # uyy Perturbation
# variable dir equal 2
# include displace.mod.lmp
# # uzz Perturbation
# variable dir equal 3
# include displace.mod.lmp
# # uyz Perturbation
# variable dir equal 4
# include displace.mod.lmp
# # uxz Perturbation
# variable dir equal 5
# include displace.mod.lmp
# # uxy Perturbation
# variable dir equal 6
# include displace.mod.lmp

# # Calc and output
# # include calc.mod.lmp
