# Define MD parameters
variable nevery equal 50                 # sampling interval
variable nrepeat equal 10                 # times to use input values for calculating averages
variable nfreq equal 50*10
variable nthermo equal 500

variable temp equal 300.0                # temperature of initial sample
variable timestep equal 0.5               # timestep
variable adiabatic equal 2                # adiabatic (1) or isothermal (2)
variable tdamp equal 50.0                 # time constant for temperature
variable pdamp equal 10*50
variable seed index 123456                # seed for thermostat
variable thermostat equal 1               # 0 if NVE, 1 if NPT, 2 if NVT
variable delta index 1.0e-6               # Born numdiff strain magnitude

# read initial structure
units           real
dimension       3
boundary        p p p
atom_style      full

# read initial structure
variable structure string "333SiO2-1-UFF-c"
read_data 333SiO2-1-UFF-c.data
Reading data file ...
  triclinic box = (0 0 0) to (14.6913 12.723 15.9631) with tilt (-7.3456 0 0)
  reading atoms ...
  243 atoms
Finding 1-2 1-3 1-4 neighbors ...
     0 = max # of 1-2 neighbors
     0 = max # of 1-3 neighbors
     0 = max # of 1-4 neighbors
     1 = max # of special neighbors

variable nequil equal 10*500
variable nrun equal 20*500

# Compute initial state
# Energy minimization
print "*****Minimization starts.*****"
*****Minimization starts.*****
velocity        all create 300 123456 dist gaussian
minimize 1.0e-6 1.0e-6 100 1000
Step          Temp          E_pair         E_mol          TotEng         Press
0   300            0              0              216.40681      3315.4065
Loop time of 6.18946e-05 on 64 procs for 1 steps with 243 atoms

Minimization stats:
  Stopping criterion = search direction is not downhill
  Energy initial, next-to-last, final =
  Force two-norm initial, final = 0 0
  Force max component initial, final = 0 0
  Final line search alpha, max atom move = 0 0
  Iterations, force evaluations = 1 0

min_style cg
# Save the optimized structure
write_data 333SiO2-1-UFF-c_opt.data
System init for write_data ...
reset_timestep 0

# equilibration
variable thermostat equal 1               # 0 if NVE, 1 if NPT, 2 if NVT
equil: 1

include ff.in
# NOTE: This script can be modified for different pair styles
# See in.elastic for more info.

reset_timestep 0

# Assign the force field
pair_style reaxff NULL safezone 3.0 mincap 150
# pair_coeff * * CHONSSi.ff O Si
# pair_coeff * * CHOSiNa.ff O Si
pair_coeff * * SiOCHN_2018.ff O Si
# pair_coeff * * PDMSDecomp.ff Si O
# pair_coeff * * CHOFe.ff O Si

# charge method for reaxff
fix myqeq all qeq/reaxff 1 0.0 10.0 1.0e-6 reaxff maxiter 400
# Setup neighbor style
neighbor        2 bin
neigh_modify    every 10 delay 0 check no

# Setup MD
# 0 if NVE, 1 if NPT, 2 if NVT
timestep 0.5

fix 5 all npt temp 300 300 50 iso 1.0 1.0 500
md: 1
thermo 500
thermo_style custom step temp pe press density vol
# save trajectory
dump dump_opt all custom 500 dump_opt.lammpstrj id type x y z
run 5000

CITE-CITE-CITE-CITE-CITE-CITE-CITE-CITE-CITE-CITE-CITE-CITE-CITE

Your simulation uses code contributions which should be cited:

- pair reaxff command: doi:10.1016/j.parco.2011.08.005

@Article{Aktulga12,
 author = {H. M. Aktulga and J. C. Fogarty and S. A. Pandit and A. Y. Grama},
 title = {Parallel Reactive Molecular Dynamics: {N}umerical Methods and Algorithmic Techniques},
 journal = {Parallel Computing},
 year =    2012,
 volume =  38,
 number =  {4--5},
 pages =   {245--259}
}

- fix qeq/reaxff command: doi:10.1016/j.parco.2011.08.005

@Article{Aktulga12,
 author = {H. M. Aktulga and J. C. Fogarty and S. A. Pandit and A. Y. Grama},
 title = {Parallel Reactive Molecular Dynamics: {N}umerical Methods and Algorithmic Techniques},
 journal = {Parallel Computing},
 year =    2012,
 volume =  38,
 pages =   {245--259}
}

CITE-CITE-CITE-CITE-CITE-CITE-CITE-CITE-CITE-CITE-CITE-CITE-CITE

Step          Temp          PotEng         Press         Density         Volume
0   300           -36701.66       32984.73       2.8878482      2983.7813
Averages over the last 6 of 11 rows, steps 2500 to 5000:
Temp PotEng Press Density Volume
288.271 -36530 1800.43 2.82967 3045.23
Loop time of 184.22 on 64 procs for 5000 steps with 243 atoms

undump dump_opt
reset_timestep 0

variable thermostat equal 2               # 0 if NVE, 1 if NPT, 2 if NVT
main run: 2
include ff.in
# NOTE: This script can be modified for different pair styles
# See in.elastic for more info.

reset_timestep 0

# Assign the force field
pair_style reaxff NULL safezone 3.0 mincap 150
# pair_coeff * * CHONSSi.ff O Si
# pair_coeff * * CHOSiNa.ff O Si
pair_coeff * * SiOCHN_2018.ff O Si
# pair_coeff * * PDMSDecomp.ff Si O
# pair_coeff * * CHOFe.ff O Si

# charge method for reaxff
fix myqeq all qeq/reaxff 1 0.0 10.0 1.0e-6 reaxff maxiter 400
# Setup neighbor style
neighbor        2 bin
neigh_modify    every 10 delay 0 check no

# Setup MD
# 0 if NVE, 1 if NPT, 2 if NVT
timestep 0.5

unfix 5
fix 6 all nvt temp 300 300 50
md: 2
include output.in
# Setup output
# define factors for units conversion
variable atm2Gpa equal 1.0-4    # atm -> GPa
variable pa2Gpa equal 1.0-9    # atm -> GPa
variable kb equal 1.380649e-23    # J/K, Boltzmann constant
variable kcm2J equal 4184/6.022e23 # kcal/mol -> J
variable A2m3 equal 1.0e-30 # Angstrom -> m, in volumn
variable vkt equal vol*1e-30/(1.380649e-23*$(temp))
variable vkt equal vol*1e-30/(1.380649e-23*293.14928241528031094)

# virial stress tensor s_ij
# change the index from LMP to Voigt notation
compute stress all pressure thermo_temp
variable s1 equal c_stress[1]
variable s2 equal c_stress[2]
variable s3 equal c_stress[3]
variable s4 equal c_stress[6]
variable s5 equal c_stress[5]
variable s6 equal c_stress[4]

variable s11 equal v_s1*v_s1
variable s22 equal v_s2*v_s2
variable s33 equal v_s3*v_s3
variable s44 equal v_s4*v_s4
variable s55 equal v_s5*v_s5
variable s66 equal v_s6*v_s6
variable s12 equal v_s1*v_s2
variable s13 equal v_s1*v_s3
variable s14 equal v_s1*v_s4
variable s15 equal v_s1*v_s5
variable s16 equal v_s1*v_s6
variable s23 equal v_s2*v_s3
variable s24 equal v_s2*v_s4
variable s25 equal v_s2*v_s5
variable s26 equal v_s2*v_s6
variable s34 equal v_s3*v_s4
variable s35 equal v_s3*v_s5
variable s36 equal v_s3*v_s6
variable s45 equal v_s4*v_s5
variable s46 equal v_s4*v_s6
variable s56 equal v_s5*v_s6

variable mytemp equal temp
variable mypress equal press
variable mype equal pe/atoms
fix avt all ave/time 50 10 500 v_mytemp ave running
fix avp all ave/time 50 10 500 v_mypress ave running
fix avpe all ave/time 50 10 500 v_mype ave running
fix avs all ave/time 50 10 500 v_s1 v_s2 v_s3 v_s4 v_s5 v_s6 ave running
fix avssq all ave/time 50 10 500 v_s11 v_s22 v_s33 v_s44 v_s55 v_s66 v_s12 v_s13 v_s14 v_s15 v_s16 v_s23 v_s24 v_s25 v_s26 v_s34 v_s35 v_s36 v_s45 v_s46 v_s56 ave running

# units conversion for F tensor
variable Ffac equal -3*7.50465342768364e-07

# calculate stress fluctuation term Fij, using the coviarance of virial stress tensor s_ij
variable F11 equal -(f_avssq[1]-f_avs[1]*f_avs[1])*-2.25139602830509e-06
variable F22 equal -(f_avssq[2]-f_avs[2]*f_avs[2])*-2.25139602830509e-06
variable F33 equal -(f_avssq[3]-f_avs[3]*f_avs[3])*-2.25139602830509e-06
variable F44 equal -(f_avssq[4]-f_avs[4]*f_avs[4])*-2.25139602830509e-06
variable F55 equal -(f_avssq[5]-f_avs[5]*f_avs[5])*-2.25139602830509e-06
variable F66 equal -(f_avssq[6]-f_avs[6]*f_avs[6])*-2.25139602830509e-06

variable F12 equal -(f_avssq[7]-f_avs[1]*f_avs[2])*-2.25139602830509e-06
variable F13 equal -(f_avssq[8]-f_avs[1]*f_avs[3])*-2.25139602830509e-06
variable F14 equal -(f_avssq[9]-f_avs[1]*f_avs[4])*-2.25139602830509e-06
variable F15 equal -(f_avssq[10]-f_avs[1]*f_avs[5])*-2.25139602830509e-06
variable F16 equal -(f_avssq[11]-f_avs[1]*f_avs[6])*-2.25139602830509e-06

variable F23 equal -(f_avssq[12]-f_avs[2]*f_avs[3])*-2.25139602830509e-06
variable F24 equal -(f_avssq[13]-f_avs[2]*f_avs[4])*-2.25139602830509e-06
variable F25 equal -(f_avssq[14]-f_avs[2]*f_avs[5])*-2.25139602830509e-06
variable F26 equal -(f_avssq[15]-f_avs[2]*f_avs[6])*-2.25139602830509e-06

variable F34 equal -(f_avssq[16]-f_avs[3]*f_avs[4])*-2.25139602830509e-06
variable F35 equal -(f_avssq[17]-f_avs[3]*f_avs[5])*-2.25139602830509e-06
variable F36 equal -(f_avssq[18]-f_avs[3]*f_avs[6])*-2.25139602830509e-06

variable F45 equal -(f_avssq[19]-f_avs[4]*f_avs[5])*-2.25139602830509e-06
variable F46 equal -(f_avssq[20]-f_avs[4]*f_avs[6])*-2.25139602830509e-06

variable F56 equal -(f_avssq[21]-f_avs[5]*f_avs[6])*-2.25139602830509e-06

# Born term, 2nd derivative of energy
compute     virial all pressure NULL virial
compute     born all born/matrix numdiff 1.0e-6 virial
fix 	    avborn all ave/time 50 10 500 c_born[*] ave running             file born.out
fix         vir all ave/time 1 1 1 c_virial[*]             file vir.out

# units conversion for B tensor
variable Bfac equal 6.94785785453338e-21/(3037.4053880639971794*1e-30)*-8
variable B vector f_avborn*-18299454.8751014

# K(inetic) term
variable kfac equal atoms/7.50465342768364e-07*-8

variable K11 equal 4.0*-2590392772.60806
variable K22 equal 4.0*-2590392772.60806
variable K33 equal 4.0*-2590392772.60806
variable K44 equal 2.0*-2590392772.60806
variable K55 equal 2.0*-2590392772.60806
variable K66 equal 2.0*-2590392772.60806

# Add F, K, and B together
variable C11 equal v_F11+v_B[1]+v_K11
variable C22 equal v_F22+v_B[2]+v_K22
variable C33 equal v_F33+v_B[3]+v_K33
variable C44 equal v_F44+v_B[4]+v_K44
variable C55 equal v_F55+v_B[5]+v_K55
variable C66 equal v_F66+v_B[6]+v_K66

variable C12 equal v_F12+v_B[7]
variable C13 equal v_F13+v_B[8]
variable C14 equal v_F14+v_B[9]
variable C15 equal v_F15+v_B[10]
variable C16 equal v_F16+v_B[11]

variable C23 equal v_F23+v_B[12]
variable C24 equal v_F24+v_B[13]
variable C25 equal v_F25+v_B[14]
variable C26 equal v_F26+v_B[15]

variable C34 equal v_F34+v_B[16]
variable C35 equal v_F35+v_B[17]
variable C36 equal v_F36+v_B[18]

variable C45 equal v_F45+v_B[19]
variable C46 equal v_F46+v_B[20]

variable C56 equal v_F56+v_B[21]

thermo		500
thermo_style custom step temp pe press f_avp v_B[11] v_F11 v_K11
# thermo_style custom step temp pe press f_avp density vol
thermo_modify norm no

# save trajectory
dump dump_main all custom 500 dump_main.lammpstrj id type x y z
run 10000
Step          Temp          PotEng         Press          f_avp         v_B[11]         v_F11          v_K11
0   293.14928     -36530.597      3524.4545      0             -0              0             -1.0361571e+10
Averages over the last 11 of 21 rows, steps 5000 to 10000:
Temp PotEng Press f_avp v_B[11] v_F11 v_K11
303.734 -36528.5 2076.38 1407.47 7.19195e+10 142.941 -1.03616e+10
Loop time of 313.527 on 64 procs for 10000 steps with 243 atoms

# output the result
# summarize sampling protocol

Stress sampling interval = 50
variable tmp equal 10000/50
Stress sample count = 200
Born sampling interval = 50
variable tmp equal 10000/50
Born sample count = 200

print ""

print "Output the tensor to C.lmp.log"
Output the tensor to C.lmp.log

print "done!"
done!
