LAMMPS (2 Aug 2023 - Update 2)
# Initialization
units           real
dimension       3
boundary        p p p
atom_style      full
timestep        0.5   # fs

# Define MD parameters
variable nevery equal 10                  # sampling interval
variable nrepeat equal 10                 # number of samples
variable nfreq equal 10*10
variable nthermo equal 100
# 1 ps : 1e3 fs / 0.5 fs = 2e3 steps
variable nequil equal 50*100
variable nrun equal 50*100
variable temp equal 300.0                # temperature of initial sample
variable tdamp equal 50.0                 # time constant for thermostat
variable seed equal 123456                # seed for thermostat
variable ufac equal 1.01325e-4         # pressure unit conversion, from atm to Gpa
variable up equal 0.1                  # the deformation magnitude 0.01

# Read the initial sctructure
# box tilt large
variable structure string 333-HD-100C-14-VASP
read_data       333-HD-100C-14-VASP.data
Reading data file ...
  triclinic box = (0 0 0) to (15.724 13.9031 17.2465) with tilt (-7.584 0.1778 0.4371)
  reading atoms ...
  366 atoms
Finding 1-2 1-3 1-4 neighbors ...
     0 = max # of 1-2 neighbors
     0 = max # of 1-3 neighbors
     0 = max # of 1-4 neighbors
     1 = max # of special neighbors

# Energy minimization
print "*****Minimization starts.*****"
*****Minimization starts.*****
minimize 1.0e-6 1.0e-6 100 1000
Step          Temp          E_pair         E_mol          TotEng         Press
0   0              0              0              0              0
Loop time of 6.07595e-05 on 8 procs for 1 steps with 366 atoms

Minimization stats:
  Stopping criterion = search direction is not downhill
  Energy initial, next-to-last, final =
  Force two-norm initial, final = 0 0
  Force max component initial, final = 0 0
  Final line search alpha, max atom move = 0 0
  Iterations, force evaluations = 1 0

min_style cg
# Save the optimized structure
write_data 333-HD-100C-14-VASP_opt.data
System init for write_data ...
velocity        all create 300 123456 dist gaussian

# Equilibration
include ff.mod.lmp
# Setup forcefield, system
# undefine any fix ave/* fix before using reset_timestep
if "$(is_defined(fix,avgp))" then "unfix avgp"
if "$(is_defined(fix,avgl))" then "unfix avgl"
reset_timestep 0

# Assign the force field
pair_style reaxff NULL safezone 3.0 mincap 150
# pair_coeff * * CHONSSi.ff O Si
# pair_coeff * * CHOSiNa.ff O Si
# pair_coeff * * SiOCHN_2018.ff O Si
# pair_coeff * * PDMSDecomp.ff Si O
pair_coeff * * CHONSi.ff C H O Si
# pair_coeff * * CHOFe.ff O Si

# charge method for reaxff
fix myqeq all qeq/reaxff 1 0.0 10.0 1.0e-6 reaxff maxiter 400
# Setup neighbor style
neighbor        2 bin
neigh_modify    every 10 delay 0 check no

# Setup output
thermo		100
thermo_style custom step temp pe press vol lx ly lz
# thermo_style custom step vol lx ly lz yz xz xy
thermo_modify norm no
# thermo_modify line multi

# Sample pressure (and length vector)
fix avgp all ave/time  10 10 100 c_thermo_press mode vector
# variable lx equal lx
# variable ly equal ly
# variable lz equal lz

# nvt
fix fnvt all nvt temp 300 300 50

if "$(is_defined(fix,avgp))" then "unfix avgp"
unfix avgp
if "$(is_defined(fix,avgl))" then "unfix avgl"
thermo_style custom step temp pe press density vol
run 5000

CITE-CITE-CITE-CITE-CITE-CITE-CITE-CITE-CITE-CITE-CITE-CITE-CITE

Your simulation uses code contributions which should be cited:

- pair reaxff command: doi:10.1016/j.parco.2011.08.005

@Article{Aktulga12,
 author = {H. M. Aktulga and J. C. Fogarty and S. A. Pandit and A. Y. Grama},
 title = {Parallel Reactive Molecular Dynamics: {N}umerical Methods and Algorithmic Techniques},
 journal = {Parallel Computing},
 year =    2012,
 volume =  38,
 number =  {4--5},
 pages =   {245--259}
}

- fix qeq/reaxff command: doi:10.1016/j.parco.2011.08.005

@Article{Aktulga12,
 author = {H. M. Aktulga and J. C. Fogarty and S. A. Pandit and A. Y. Grama},
 title = {Parallel Reactive Molecular Dynamics: {N}umerical Methods and Algorithmic Techniques},
 journal = {Parallel Computing},
 year =    2012,
 volume =  38,
 pages =   {245--259}
}

CITE-CITE-CITE-CITE-CITE-CITE-CITE-CITE-CITE-CITE-CITE-CITE-CITE

Step          Temp          PotEng         Press         Density         Volume
0   300           -43579.409      43399.428      1.8952586      3770.2978
Averages over the last 26 of 51 rows, steps 2500 to 5000:
Temp PotEng Press Density Volume
303.09 -44400.8 -2195.42 1.89526 3770.3
Loop time of 278.089 on 8 procs for 5000 steps with 366 atoms

# Save the equilibrated structure
write_data 333-HD-100C-14-VASP_eq.data
System init for write_data ...

# use tmp to save initial length and tilt
variable tmp equal lx
variable lx0 equal 15.724
variable tmp equal ly
variable ly0 equal 13.9031
variable tmp equal lz
variable lz0 equal 17.2465

variable tmp equal yz
variable yz0 equal 0.4371
variable tmp equal xz
variable xz0 equal 0.1778
variable tmp equal xy
variable xy0 equal -7.584

# Write restart
write_restart equil.res
System init for write_restart ...

# dir: direction
# uxx Perturbation
variable dir equal 1
include displace.mod.lmp
# # Find which reference length to use

# Find which length (epsilon) to calculate
variable len0 equal 15.724
variable dlen equal lx-15.724

# strain vector (epsilon)
variable eps equal v_dlen/v_len0

# stress vector (sigma)
variable sig1 equal -f_avgp[1]*0.000101325
variable sig2 equal -f_avgp[2]*0.000101325
variable sig3 equal -f_avgp[3]*0.000101325
variable sig4 equal -f_avgp[6]*0.000101325
variable sig5 equal -f_avgp[5]*0.000101325
variable sig6 equal -f_avgp[4]*0.000101325

# Reset box and simulation parameters
clear
# box tilt large
read_restart equil.res
Reading restart file ...
  restart file = 2 Aug 2023, LAMMPS = 2 Aug 2023
  restoring atom style full from restart
  triclinic box = (0 0 0) to (15.724 13.9031 17.2465) with tilt (-7.584 0.1778 0.4371)
  pair style reaxff stores no restart info
  366 atoms
Finding 1-2 1-3 1-4 neighbors ...
     0 = max # of 1-2 neighbors
     0 = max # of 1-3 neighbors
     0 = max # of 1-4 neighbors
     1 = max # of special neighbors
  read_restart CPU = 0.003 seconds

# Negative deformation
variable delta equal -0.1*15.724
variable deltaxy equal -0.1*xy
variable deltaxz equal -0.1*xz
variable deltayz equal -0.1*yz
print "*****debug*****"
*****debug*****
xy = -7.5839999999999996305, deltaxy = 0.7584
xz = 0.17780000000000001359, deltaxz = -0.01778
yz = 0.43709999999999998854, deltayz = -0.04371
print "*****"
*****

fix deform_n all deform 100 x delta 0 -1.5724 xy delta 0.7584 xz delta -0.01778 remap v units box flip no

# Run MD for Negative deformation
*****Negative-deform 1 starts.*****
include ff.mod.lmp
# Setup forcefield, system
# undefine any fix ave/* fix before using reset_timestep
if "$(is_defined(fix,avgp))" then "unfix avgp"
if "$(is_defined(fix,avgl))" then "unfix avgl"
reset_timestep 0

# Assign the force field
pair_style reaxff NULL safezone 3.0 mincap 150
# pair_coeff * * CHONSSi.ff O Si
# pair_coeff * * CHOSiNa.ff O Si
# pair_coeff * * SiOCHN_2018.ff O Si
# pair_coeff * * PDMSDecomp.ff Si O
pair_coeff * * CHONSi.ff C H O Si
# pair_coeff * * CHOFe.ff O Si

# charge method for reaxff
fix myqeq all qeq/reaxff 1 0.0 10.0 1.0e-6 reaxff maxiter 400
# Setup neighbor style
neighbor        2 bin
neigh_modify    every 10 delay 0 check no

# Setup output
thermo		100
thermo_style custom step temp pe press vol lx ly lz
# thermo_style custom step vol lx ly lz yz xz xy
thermo_modify norm no
# thermo_modify line multi

# Sample pressure (and length vector)
fix avgp all ave/time  10 10 100 c_thermo_press mode vector
# variable lx equal lx
# variable ly equal ly
# variable lz equal lz

# nvt
fix fnvt all nvt temp 300 300 50
  fix style: nvt, fix ID: fnvt

# save trajectory
dump dump_neg1 all custom 100 dump/neg_deform1.lammpstrj id type q x y z
run 5000
All restart file global fix info was re-assigned
Step          Temp          PotEng         Press          Volume           Lx             Ly             Lz
0   313.86144     -44406.269      4512.7738      3770.2978      15.724         13.9031        17.2465
Averages over the last 26 of 51 rows, steps 2500 to 5000:
Temp PotEng Press Volume Lx Ly Lz
300.134 -44364.6 35911.9 3487.53 14.5447 13.9031 17.2465
Loop time of 303.974 on 8 procs for 5000 steps with 366 atoms

unfix deform_n
unfix data
undump dump_neg1

# Compute elastic constant from pressure
# d1 = -[pxx1-pxx0]/[(v_delta/v_len0] defined in input script

# Reset box and simulation parameters
clear
# box tilt large
read_restart equil.res
Reading restart file ...
  restart file = 2 Aug 2023, LAMMPS = 2 Aug 2023
  restoring atom style full from restart
  triclinic box = (0 0 0) to (15.724 13.9031 17.2465) with tilt (-7.584 0.1778 0.4371)
  pair style reaxff stores no restart info
  366 atoms
Finding 1-2 1-3 1-4 neighbors ...
     0 = max # of 1-2 neighbors
     0 = max # of 1-3 neighbors
     0 = max # of 1-4 neighbors
     1 = max # of special neighbors
  read_restart CPU = 0.004 seconds

# Positive deformation
variable delta equal 0.1*15.724
variable deltaxy equal 0.1*xy
variable deltaxz equal 0.1*xz
variable deltayz equal 0.1*yz
fix deform_p all deform 100 x delta 0 1.5724 xy delta -0.7584 xz delta 0.01778 remap v units box

# Run deformation MD
*****Positive-deform 1 starts.*****
include ff.mod.lmp
# Setup forcefield, system
# undefine any fix ave/* fix before using reset_timestep
if "$(is_defined(fix,avgp))" then "unfix avgp"
if "$(is_defined(fix,avgl))" then "unfix avgl"
reset_timestep 0

# Assign the force field
pair_style reaxff NULL safezone 3.0 mincap 150
# pair_coeff * * CHONSSi.ff O Si
# pair_coeff * * CHOSiNa.ff O Si
# pair_coeff * * SiOCHN_2018.ff O Si
# pair_coeff * * PDMSDecomp.ff Si O
pair_coeff * * CHONSi.ff C H O Si
# pair_coeff * * CHOFe.ff O Si

# charge method for reaxff
fix myqeq all qeq/reaxff 1 0.0 10.0 1.0e-6 reaxff maxiter 400
# Setup neighbor style
neighbor        2 bin
neigh_modify    every 10 delay 0 check no

# Setup output
thermo		100
thermo_style custom step temp pe press vol lx ly lz
# thermo_style custom step vol lx ly lz yz xz xy
thermo_modify norm no
# thermo_modify line multi

# Sample pressure (and length vector)
fix avgp all ave/time  10 10 100 c_thermo_press mode vector
# variable lx equal lx
# variable ly equal ly
# variable lz equal lz

# nvt
fix fnvt all nvt temp 300 300 50
  fix style: nvt, fix ID: fnvt

# save trajectory
dump dump_pos1 all custom 100 dump/pos_deform1.lammpstrj id type q x y z
run 5000
All restart file global fix info was re-assigned
Step          Temp          PotEng         Press          Volume           Lx             Ly             Lz
0   313.86144     -44406.269      4512.7738      3770.2978      15.724         13.9031        17.2465
Averages over the last 26 of 51 rows, steps 2500 to 5000:
Temp PotEng Press Volume Lx Ly Lz
301.995 -44259.2 -29396 4053.07 16.9033 13.9031 17.2465
Loop time of 260.849 on 8 procs for 5000 steps with 366 atoms

unfix deform_p
unfix data
undump dump_pos1

# # Combine positive and negative

# Delete dir to make sure it is not reused
variable dir delete
# uyy Perturbation
variable dir equal 2
include displace.mod.lmp
# # Find which reference length to use

# Find which length (epsilon) to calculate
variable len0 equal 13.9031
variable dlen equal ly-13.9031

# strain vector (epsilon)
variable eps equal v_dlen/v_len0

# stress vector (sigma)
variable sig1 equal -f_avgp[1]*0.000101325
variable sig2 equal -f_avgp[2]*0.000101325
variable sig3 equal -f_avgp[3]*0.000101325
variable sig4 equal -f_avgp[6]*0.000101325
variable sig5 equal -f_avgp[5]*0.000101325
variable sig6 equal -f_avgp[4]*0.000101325

# Reset box and simulation parameters
clear
# box tilt large
read_restart equil.res
Reading restart file ...
  restart file = 2 Aug 2023, LAMMPS = 2 Aug 2023
  restoring atom style full from restart
  triclinic box = (0 0 0) to (15.724 13.9031 17.2465) with tilt (-7.584 0.1778 0.4371)
  pair style reaxff stores no restart info
  366 atoms
Finding 1-2 1-3 1-4 neighbors ...
     0 = max # of 1-2 neighbors
     0 = max # of 1-3 neighbors
     0 = max # of 1-4 neighbors
     1 = max # of special neighbors
  read_restart CPU = 0.003 seconds

# Negative deformation
variable delta equal -0.1*13.9031
variable deltaxy equal -0.1*xy
variable deltaxz equal -0.1*xz
variable deltayz equal -0.1*yz
print "*****debug*****"
*****debug*****
xy = -7.5839999999999996305, deltaxy = 0.7584
xz = 0.17780000000000001359, deltaxz = -0.01778
yz = 0.43709999999999998854, deltayz = -0.04371
print "*****"
*****

fix deform_n all deform 100 y delta 0 -1.39031 yz delta -0.04371 remap v units box flip no

# Run MD for Negative deformation
*****Negative-deform 2 starts.*****
include ff.mod.lmp
# Setup forcefield, system
# undefine any fix ave/* fix before using reset_timestep
if "$(is_defined(fix,avgp))" then "unfix avgp"
if "$(is_defined(fix,avgl))" then "unfix avgl"
reset_timestep 0

# Assign the force field
pair_style reaxff NULL safezone 3.0 mincap 150
# pair_coeff * * CHONSSi.ff O Si
# pair_coeff * * CHOSiNa.ff O Si
# pair_coeff * * SiOCHN_2018.ff O Si
# pair_coeff * * PDMSDecomp.ff Si O
pair_coeff * * CHONSi.ff C H O Si
# pair_coeff * * CHOFe.ff O Si

# charge method for reaxff
fix myqeq all qeq/reaxff 1 0.0 10.0 1.0e-6 reaxff maxiter 400
# Setup neighbor style
neighbor        2 bin
neigh_modify    every 10 delay 0 check no

# Setup output
thermo		100
thermo_style custom step temp pe press vol lx ly lz
# thermo_style custom step vol lx ly lz yz xz xy
thermo_modify norm no
# thermo_modify line multi

# Sample pressure (and length vector)
fix avgp all ave/time  10 10 100 c_thermo_press mode vector
# variable lx equal lx
# variable ly equal ly
# variable lz equal lz

# nvt
fix fnvt all nvt temp 300 300 50
  fix style: nvt, fix ID: fnvt

# save trajectory
dump dump_neg2 all custom 100 dump/neg_deform2.lammpstrj id type q x y z
run 5000
All restart file global fix info was re-assigned
Step          Temp          PotEng         Press          Volume           Lx             Ly             Lz
0   313.86144     -44406.269      4512.7738      3770.2978      15.724         13.9031        17.2465
Averages over the last 26 of 51 rows, steps 2500 to 5000:
Temp PotEng Press Volume Lx Ly Lz
301.344 -44351 34661.7 3487.53 15.724 12.8604 17.2465
Loop time of 306.525 on 8 procs for 5000 steps with 366 atoms

unfix deform_n
unfix data
undump dump_neg2

# Compute elastic constant from pressure
# d1 = -[pxx1-pxx0]/[(v_delta/v_len0] defined in input script

# Reset box and simulation parameters
clear
# box tilt large
read_restart equil.res
Reading restart file ...
  restart file = 2 Aug 2023, LAMMPS = 2 Aug 2023
  restoring atom style full from restart
  triclinic box = (0 0 0) to (15.724 13.9031 17.2465) with tilt (-7.584 0.1778 0.4371)
  pair style reaxff stores no restart info
  366 atoms
Finding 1-2 1-3 1-4 neighbors ...
     0 = max # of 1-2 neighbors
     0 = max # of 1-3 neighbors
     0 = max # of 1-4 neighbors
     1 = max # of special neighbors
  read_restart CPU = 0.004 seconds

# Positive deformation
variable delta equal 0.1*13.9031
variable deltaxy equal 0.1*xy
variable deltaxz equal 0.1*xz
variable deltayz equal 0.1*yz
fix deform_p all deform 100 y delta 0 1.39031 yz delta 0.04371 remap v units box

# Run deformation MD
*****Positive-deform 2 starts.*****
include ff.mod.lmp
# Setup forcefield, system
# undefine any fix ave/* fix before using reset_timestep
if "$(is_defined(fix,avgp))" then "unfix avgp"
if "$(is_defined(fix,avgl))" then "unfix avgl"
reset_timestep 0

# Assign the force field
pair_style reaxff NULL safezone 3.0 mincap 150
# pair_coeff * * CHONSSi.ff O Si
# pair_coeff * * CHOSiNa.ff O Si
# pair_coeff * * SiOCHN_2018.ff O Si
# pair_coeff * * PDMSDecomp.ff Si O
pair_coeff * * CHONSi.ff C H O Si
# pair_coeff * * CHOFe.ff O Si

# charge method for reaxff
fix myqeq all qeq/reaxff 1 0.0 10.0 1.0e-6 reaxff maxiter 400
# Setup neighbor style
neighbor        2 bin
neigh_modify    every 10 delay 0 check no

# Setup output
thermo		100
thermo_style custom step temp pe press vol lx ly lz
# thermo_style custom step vol lx ly lz yz xz xy
thermo_modify norm no
# thermo_modify line multi

# Sample pressure (and length vector)
fix avgp all ave/time  10 10 100 c_thermo_press mode vector
# variable lx equal lx
# variable ly equal ly
# variable lz equal lz

# nvt
fix fnvt all nvt temp 300 300 50
  fix style: nvt, fix ID: fnvt

# save trajectory
dump dump_pos2 all custom 100 dump/pos_deform2.lammpstrj id type q x y z
run 5000
All restart file global fix info was re-assigned
Step          Temp          PotEng         Press          Volume           Lx             Ly             Lz
0   313.86144     -44406.269      4512.7738      3770.2978      15.724         13.9031        17.2465
Averages over the last 26 of 51 rows, steps 2500 to 5000:
Temp PotEng Press Volume Lx Ly Lz
297.838 -44258.4 -28429.7 4053.07 15.724 14.9458 17.2465
Loop time of 258.158 on 8 procs for 5000 steps with 366 atoms

unfix deform_p
unfix data
undump dump_pos2

# # Combine positive and negative

# Delete dir to make sure it is not reused
variable dir delete
# uzz Perturbation
variable dir equal 3
include displace.mod.lmp
# # Find which reference length to use

# Find which length (epsilon) to calculate
variable len0 equal 17.2465
variable dlen equal lz-17.2465

# strain vector (epsilon)
variable eps equal v_dlen/v_len0

# stress vector (sigma)
variable sig1 equal -f_avgp[1]*0.000101325
variable sig2 equal -f_avgp[2]*0.000101325
variable sig3 equal -f_avgp[3]*0.000101325
variable sig4 equal -f_avgp[6]*0.000101325
variable sig5 equal -f_avgp[5]*0.000101325
variable sig6 equal -f_avgp[4]*0.000101325

# Reset box and simulation parameters
clear
# box tilt large
read_restart equil.res
Reading restart file ...
  restart file = 2 Aug 2023, LAMMPS = 2 Aug 2023
  restoring atom style full from restart
  triclinic box = (0 0 0) to (15.724 13.9031 17.2465) with tilt (-7.584 0.1778 0.4371)
  pair style reaxff stores no restart info
  366 atoms
Finding 1-2 1-3 1-4 neighbors ...
     0 = max # of 1-2 neighbors
     0 = max # of 1-3 neighbors
     0 = max # of 1-4 neighbors
     1 = max # of special neighbors
  read_restart CPU = 0.004 seconds

# Negative deformation
variable delta equal -0.1*17.2465
variable deltaxy equal -0.1*xy
variable deltaxz equal -0.1*xz
variable deltayz equal -0.1*yz
print "*****debug*****"
*****debug*****
xy = -7.5839999999999996305, deltaxy = 0.7584
xz = 0.17780000000000001359, deltaxz = -0.01778
yz = 0.43709999999999998854, deltayz = -0.04371
print "*****"
*****

fix deform_n all deform 100 z delta 0 -1.72465 remap v units box flip no

# Run MD for Negative deformation
*****Negative-deform 3 starts.*****
include ff.mod.lmp
# Setup forcefield, system
# undefine any fix ave/* fix before using reset_timestep
if "$(is_defined(fix,avgp))" then "unfix avgp"
if "$(is_defined(fix,avgl))" then "unfix avgl"
reset_timestep 0

# Assign the force field
pair_style reaxff NULL safezone 3.0 mincap 150
# pair_coeff * * CHONSSi.ff O Si
# pair_coeff * * CHOSiNa.ff O Si
# pair_coeff * * SiOCHN_2018.ff O Si
# pair_coeff * * PDMSDecomp.ff Si O
pair_coeff * * CHONSi.ff C H O Si
# pair_coeff * * CHOFe.ff O Si

# charge method for reaxff
fix myqeq all qeq/reaxff 1 0.0 10.0 1.0e-6 reaxff maxiter 400
# Setup neighbor style
neighbor        2 bin
neigh_modify    every 10 delay 0 check no

# Setup output
thermo		100
thermo_style custom step temp pe press vol lx ly lz
# thermo_style custom step vol lx ly lz yz xz xy
thermo_modify norm no
# thermo_modify line multi

# Sample pressure (and length vector)
fix avgp all ave/time  10 10 100 c_thermo_press mode vector
# variable lx equal lx
# variable ly equal ly
# variable lz equal lz

# nvt
fix fnvt all nvt temp 300 300 50
  fix style: nvt, fix ID: fnvt

# save trajectory
dump dump_neg3 all custom 100 dump/neg_deform3.lammpstrj id type q x y z
run 5000
All restart file global fix info was re-assigned
Step          Temp          PotEng         Press          Volume           Lx             Ly             Lz
0   313.86144     -44406.269      4512.7738      3770.2978      15.724         13.9031        17.2465
Averages over the last 26 of 51 rows, steps 2500 to 5000:
Temp PotEng Press Volume Lx Ly Lz
304.241 -44339.5 34853.8 3487.53 15.724 13.9031 15.953
Loop time of 304.564 on 8 procs for 5000 steps with 366 atoms

unfix deform_n
unfix data
undump dump_neg3

# Compute elastic constant from pressure
# d1 = -[pxx1-pxx0]/[(v_delta/v_len0] defined in input script

# Reset box and simulation parameters
clear
# box tilt large
read_restart equil.res
Reading restart file ...
  restart file = 2 Aug 2023, LAMMPS = 2 Aug 2023
  restoring atom style full from restart
  triclinic box = (0 0 0) to (15.724 13.9031 17.2465) with tilt (-7.584 0.1778 0.4371)
  pair style reaxff stores no restart info
  366 atoms
Finding 1-2 1-3 1-4 neighbors ...
     0 = max # of 1-2 neighbors
     0 = max # of 1-3 neighbors
     0 = max # of 1-4 neighbors
     1 = max # of special neighbors
  read_restart CPU = 0.003 seconds

# Positive deformation
variable delta equal 0.1*17.2465
variable deltaxy equal 0.1*xy
variable deltaxz equal 0.1*xz
variable deltayz equal 0.1*yz
fix deform_p all deform 100 z delta 0 1.72465 remap v units box

# Run deformation MD
*****Positive-deform 3 starts.*****
include ff.mod.lmp
# Setup forcefield, system
# undefine any fix ave/* fix before using reset_timestep
if "$(is_defined(fix,avgp))" then "unfix avgp"
if "$(is_defined(fix,avgl))" then "unfix avgl"
reset_timestep 0

# Assign the force field
pair_style reaxff NULL safezone 3.0 mincap 150
# pair_coeff * * CHONSSi.ff O Si
# pair_coeff * * CHOSiNa.ff O Si
# pair_coeff * * SiOCHN_2018.ff O Si
# pair_coeff * * PDMSDecomp.ff Si O
pair_coeff * * CHONSi.ff C H O Si
# pair_coeff * * CHOFe.ff O Si

# charge method for reaxff
fix myqeq all qeq/reaxff 1 0.0 10.0 1.0e-6 reaxff maxiter 400
# Setup neighbor style
neighbor        2 bin
neigh_modify    every 10 delay 0 check no

# Setup output
thermo		100
thermo_style custom step temp pe press vol lx ly lz
# thermo_style custom step vol lx ly lz yz xz xy
thermo_modify norm no
# thermo_modify line multi

# Sample pressure (and length vector)
fix avgp all ave/time  10 10 100 c_thermo_press mode vector
# variable lx equal lx
# variable ly equal ly
# variable lz equal lz

# nvt
fix fnvt all nvt temp 300 300 50
  fix style: nvt, fix ID: fnvt

# save trajectory
dump dump_pos3 all custom 100 dump/pos_deform3.lammpstrj id type q x y z
run 5000
All restart file global fix info was re-assigned
Step          Temp          PotEng         Press          Volume           Lx             Ly             Lz
0   313.86144     -44406.269      4512.7738      3770.2978      15.724         13.9031        17.2465
Averages over the last 26 of 51 rows, steps 2500 to 5000:
Temp PotEng Press Volume Lx Ly Lz
301.343 -44274.7 -33813.3 4053.07 15.724 13.9031 18.54
Loop time of 259.491 on 8 procs for 5000 steps with 366 atoms

unfix deform_p
unfix data
undump dump_pos3

# # Combine positive and negative

# Delete dir to make sure it is not reused
variable dir delete
# uyz Perturbation
variable dir equal 4
include displace.mod.lmp
# # Find which reference length to use

# Find which length (epsilon) to calculate
variable len0 equal 15.724
variable dlen equal 2*(yz-0.4371)

# strain vector (epsilon)
variable eps equal v_dlen/v_len0

# stress vector (sigma)
variable sig1 equal -f_avgp[1]*0.000101325
variable sig2 equal -f_avgp[2]*0.000101325
variable sig3 equal -f_avgp[3]*0.000101325
variable sig4 equal -f_avgp[6]*0.000101325
variable sig5 equal -f_avgp[5]*0.000101325
variable sig6 equal -f_avgp[4]*0.000101325

# Reset box and simulation parameters
clear
# box tilt large
read_restart equil.res
Reading restart file ...
  restart file = 2 Aug 2023, LAMMPS = 2 Aug 2023
  restoring atom style full from restart
  triclinic box = (0 0 0) to (15.724 13.9031 17.2465) with tilt (-7.584 0.1778 0.4371)
  pair style reaxff stores no restart info
  366 atoms
Finding 1-2 1-3 1-4 neighbors ...
     0 = max # of 1-2 neighbors
     0 = max # of 1-3 neighbors
     0 = max # of 1-4 neighbors
     1 = max # of special neighbors
  read_restart CPU = 0.003 seconds

# Negative deformation
variable delta equal -0.1*15.724
variable deltaxy equal -0.1*xy
variable deltaxz equal -0.1*xz
variable deltayz equal -0.1*yz
print "*****debug*****"
*****debug*****
xy = -7.5839999999999996305, deltaxy = 0.7584
xz = 0.17780000000000001359, deltaxz = -0.01778
yz = 0.43709999999999998854, deltayz = -0.04371
print "*****"
*****

fix deform_n all deform 100 yz delta -1.5724 remap v units box flip no

# Run MD for Negative deformation
*****Negative-deform 4 starts.*****
include ff.mod.lmp
# Setup forcefield, system
# undefine any fix ave/* fix before using reset_timestep
if "$(is_defined(fix,avgp))" then "unfix avgp"
if "$(is_defined(fix,avgl))" then "unfix avgl"
reset_timestep 0

# Assign the force field
pair_style reaxff NULL safezone 3.0 mincap 150
# pair_coeff * * CHONSSi.ff O Si
# pair_coeff * * CHOSiNa.ff O Si
# pair_coeff * * SiOCHN_2018.ff O Si
# pair_coeff * * PDMSDecomp.ff Si O
pair_coeff * * CHONSi.ff C H O Si
# pair_coeff * * CHOFe.ff O Si

# charge method for reaxff
fix myqeq all qeq/reaxff 1 0.0 10.0 1.0e-6 reaxff maxiter 400
# Setup neighbor style
neighbor        2 bin
neigh_modify    every 10 delay 0 check no

# Setup output
thermo		100
thermo_style custom step temp pe press vol lx ly lz
# thermo_style custom step vol lx ly lz yz xz xy
thermo_modify norm no
# thermo_modify line multi

# Sample pressure (and length vector)
fix avgp all ave/time  10 10 100 c_thermo_press mode vector
# variable lx equal lx
# variable ly equal ly
# variable lz equal lz

# nvt
fix fnvt all nvt temp 300 300 50
  fix style: nvt, fix ID: fnvt

# save trajectory
dump dump_neg4 all custom 100 dump/neg_deform4.lammpstrj id type q x y z
run 5000
All restart file global fix info was re-assigned
Step          Temp          PotEng         Press          Volume           Lx             Ly             Lz
0   313.86144     -44406.269      4512.7738      3770.2978      15.724         13.9031        17.2465
Averages over the last 26 of 51 rows, steps 2500 to 5000:
Temp PotEng Press Volume Lx Ly Lz
297.872 -44390.5 -3029.27 3770.3 15.724 13.9031 17.2465
Loop time of 278.278 on 8 procs for 5000 steps with 366 atoms

unfix deform_n
unfix data
undump dump_neg4

# Compute elastic constant from pressure
# d1 = -[pxx1-pxx0]/[(v_delta/v_len0] defined in input script

# Reset box and simulation parameters
clear
# box tilt large
read_restart equil.res
Reading restart file ...
  restart file = 2 Aug 2023, LAMMPS = 2 Aug 2023
  restoring atom style full from restart
  triclinic box = (0 0 0) to (15.724 13.9031 17.2465) with tilt (-7.584 0.1778 0.4371)
  pair style reaxff stores no restart info
  366 atoms
Finding 1-2 1-3 1-4 neighbors ...
     0 = max # of 1-2 neighbors
     0 = max # of 1-3 neighbors
     0 = max # of 1-4 neighbors
     1 = max # of special neighbors
  read_restart CPU = 0.003 seconds

# Positive deformation
variable delta equal 0.1*15.724
variable deltaxy equal 0.1*xy
variable deltaxz equal 0.1*xz
variable deltayz equal 0.1*yz
fix deform_p all deform 100 yz delta 1.5724 remap v units box

# Run deformation MD
*****Positive-deform 4 starts.*****
include ff.mod.lmp
# Setup forcefield, system
# undefine any fix ave/* fix before using reset_timestep
if "$(is_defined(fix,avgp))" then "unfix avgp"
if "$(is_defined(fix,avgl))" then "unfix avgl"
reset_timestep 0

# Assign the force field
pair_style reaxff NULL safezone 3.0 mincap 150
# pair_coeff * * CHONSSi.ff O Si
# pair_coeff * * CHOSiNa.ff O Si
# pair_coeff * * SiOCHN_2018.ff O Si
# pair_coeff * * PDMSDecomp.ff Si O
pair_coeff * * CHONSi.ff C H O Si
# pair_coeff * * CHOFe.ff O Si

# charge method for reaxff
fix myqeq all qeq/reaxff 1 0.0 10.0 1.0e-6 reaxff maxiter 400
# Setup neighbor style
neighbor        2 bin
neigh_modify    every 10 delay 0 check no

# Setup output
thermo		100
thermo_style custom step temp pe press vol lx ly lz
# thermo_style custom step vol lx ly lz yz xz xy
thermo_modify norm no
# thermo_modify line multi

# Sample pressure (and length vector)
fix avgp all ave/time  10 10 100 c_thermo_press mode vector
# variable lx equal lx
# variable ly equal ly
# variable lz equal lz

# nvt
fix fnvt all nvt temp 300 300 50
  fix style: nvt, fix ID: fnvt

# save trajectory
dump dump_pos4 all custom 100 dump/pos_deform4.lammpstrj id type q x y z
run 5000
All restart file global fix info was re-assigned
Step          Temp          PotEng         Press          Volume           Lx             Ly             Lz
0   313.86144     -44406.269      4512.7738      3770.2978      15.724         13.9031        17.2465
Averages over the last 26 of 51 rows, steps 2500 to 5000:
Temp PotEng Press Volume Lx Ly Lz
296.323 -44388.9 -2337.37 3770.3 15.724 13.9031 17.2465
Loop time of 264.731 on 8 procs for 5000 steps with 366 atoms

unfix deform_p
unfix data
undump dump_pos4

# # Combine positive and negative

# Delete dir to make sure it is not reused
variable dir delete
# uxz Perturbation
variable dir equal 5
include displace.mod.lmp
# # Find which reference length to use

# Find which length (epsilon) to calculate
variable len0 equal 13.9031
variable dlen equal 2*(xz-0.1778)

# strain vector (epsilon)
variable eps equal v_dlen/v_len0

# stress vector (sigma)
variable sig1 equal -f_avgp[1]*0.000101325
variable sig2 equal -f_avgp[2]*0.000101325
variable sig3 equal -f_avgp[3]*0.000101325
variable sig4 equal -f_avgp[6]*0.000101325
variable sig5 equal -f_avgp[5]*0.000101325
variable sig6 equal -f_avgp[4]*0.000101325

# Reset box and simulation parameters
clear
# box tilt large
read_restart equil.res
Reading restart file ...
  restart file = 2 Aug 2023, LAMMPS = 2 Aug 2023
  restoring atom style full from restart
  triclinic box = (0 0 0) to (15.724 13.9031 17.2465) with tilt (-7.584 0.1778 0.4371)
  pair style reaxff stores no restart info
  366 atoms
Finding 1-2 1-3 1-4 neighbors ...
     0 = max # of 1-2 neighbors
     0 = max # of 1-3 neighbors
     0 = max # of 1-4 neighbors
     1 = max # of special neighbors
  read_restart CPU = 0.002 seconds

# Negative deformation
variable delta equal -0.1*13.9031
variable deltaxy equal -0.1*xy
variable deltaxz equal -0.1*xz
variable deltayz equal -0.1*yz
print "*****debug*****"
*****debug*****
xy = -7.5839999999999996305, deltaxy = 0.7584
xz = 0.17780000000000001359, deltaxz = -0.01778
yz = 0.43709999999999998854, deltayz = -0.04371
print "*****"
*****

fix deform_n all deform 100 xz delta -1.39031 remap v units box flip no

# Run MD for Negative deformation
*****Negative-deform 5 starts.*****
include ff.mod.lmp
# Setup forcefield, system
# undefine any fix ave/* fix before using reset_timestep
if "$(is_defined(fix,avgp))" then "unfix avgp"
if "$(is_defined(fix,avgl))" then "unfix avgl"
reset_timestep 0

# Assign the force field
pair_style reaxff NULL safezone 3.0 mincap 150
# pair_coeff * * CHONSSi.ff O Si
# pair_coeff * * CHOSiNa.ff O Si
# pair_coeff * * SiOCHN_2018.ff O Si
# pair_coeff * * PDMSDecomp.ff Si O
pair_coeff * * CHONSi.ff C H O Si
# pair_coeff * * CHOFe.ff O Si

# charge method for reaxff
fix myqeq all qeq/reaxff 1 0.0 10.0 1.0e-6 reaxff maxiter 400
# Setup neighbor style
neighbor        2 bin
neigh_modify    every 10 delay 0 check no

# Setup output
thermo		100
thermo_style custom step temp pe press vol lx ly lz
# thermo_style custom step vol lx ly lz yz xz xy
thermo_modify norm no
# thermo_modify line multi

# Sample pressure (and length vector)
fix avgp all ave/time  10 10 100 c_thermo_press mode vector
# variable lx equal lx
# variable ly equal ly
# variable lz equal lz

# nvt
fix fnvt all nvt temp 300 300 50
  fix style: nvt, fix ID: fnvt

# save trajectory
dump dump_neg5 all custom 100 dump/neg_deform5.lammpstrj id type q x y z
run 5000
All restart file global fix info was re-assigned
Step          Temp          PotEng         Press          Volume           Lx             Ly             Lz
0   313.86144     -44406.269      4512.7738      3770.2978      15.724         13.9031        17.2465
Averages over the last 26 of 51 rows, steps 2500 to 5000:
Temp PotEng Press Volume Lx Ly Lz
300.705 -44395.1 -6814.26 3770.3 15.724 13.9031 17.2465
Loop time of 185.054 on 8 procs for 5000 steps with 366 atoms

unfix deform_n
unfix data
undump dump_neg5

# Compute elastic constant from pressure
# d1 = -[pxx1-pxx0]/[(v_delta/v_len0] defined in input script

# Reset box and simulation parameters
clear
# box tilt large
read_restart equil.res
Reading restart file ...
  restart file = 2 Aug 2023, LAMMPS = 2 Aug 2023
  restoring atom style full from restart
  triclinic box = (0 0 0) to (15.724 13.9031 17.2465) with tilt (-7.584 0.1778 0.4371)
  pair style reaxff stores no restart info
  366 atoms
Finding 1-2 1-3 1-4 neighbors ...
     0 = max # of 1-2 neighbors
     0 = max # of 1-3 neighbors
     0 = max # of 1-4 neighbors
     1 = max # of special neighbors
  read_restart CPU = 0.002 seconds

# Positive deformation
variable delta equal 0.1*13.9031
variable deltaxy equal 0.1*xy
variable deltaxz equal 0.1*xz
variable deltayz equal 0.1*yz
fix deform_p all deform 100 xz delta 1.39031 remap v units box

# Run deformation MD
*****Positive-deform 5 starts.*****
include ff.mod.lmp
# Setup forcefield, system
# undefine any fix ave/* fix before using reset_timestep
if "$(is_defined(fix,avgp))" then "unfix avgp"
if "$(is_defined(fix,avgl))" then "unfix avgl"
reset_timestep 0

# Assign the force field
pair_style reaxff NULL safezone 3.0 mincap 150
# pair_coeff * * CHONSSi.ff O Si
# pair_coeff * * CHOSiNa.ff O Si
# pair_coeff * * SiOCHN_2018.ff O Si
# pair_coeff * * PDMSDecomp.ff Si O
pair_coeff * * CHONSi.ff C H O Si
# pair_coeff * * CHOFe.ff O Si

# charge method for reaxff
fix myqeq all qeq/reaxff 1 0.0 10.0 1.0e-6 reaxff maxiter 400
# Setup neighbor style
neighbor        2 bin
neigh_modify    every 10 delay 0 check no

# Setup output
thermo		100
thermo_style custom step temp pe press vol lx ly lz
# thermo_style custom step vol lx ly lz yz xz xy
thermo_modify norm no
# thermo_modify line multi

# Sample pressure (and length vector)
fix avgp all ave/time  10 10 100 c_thermo_press mode vector
# variable lx equal lx
# variable ly equal ly
# variable lz equal lz

# nvt
fix fnvt all nvt temp 300 300 50
  fix style: nvt, fix ID: fnvt

# save trajectory
dump dump_pos5 all custom 100 dump/pos_deform5.lammpstrj id type q x y z
run 5000
All restart file global fix info was re-assigned
Step          Temp          PotEng         Press          Volume           Lx             Ly             Lz
0   313.86144     -44406.269      4512.7738      3770.2978      15.724         13.9031        17.2465
Averages over the last 26 of 51 rows, steps 2500 to 5000:
Temp PotEng Press Volume Lx Ly Lz
300.322 -44394 -4461.87 3770.3 15.724 13.9031 17.2465
Loop time of 160.743 on 8 procs for 5000 steps with 366 atoms

unfix deform_p
unfix data
undump dump_pos5

# # Combine positive and negative

# Delete dir to make sure it is not reused
variable dir delete
# uxy Perturbation
variable dir equal 6
include displace.mod.lmp
# # Find which reference length to use

# Find which length (epsilon) to calculate
variable len0 equal 17.2465
variable dlen equal 2*(xy--7.584)

# strain vector (epsilon)
variable eps equal v_dlen/v_len0

# stress vector (sigma)
variable sig1 equal -f_avgp[1]*0.000101325
variable sig2 equal -f_avgp[2]*0.000101325
variable sig3 equal -f_avgp[3]*0.000101325
variable sig4 equal -f_avgp[6]*0.000101325
variable sig5 equal -f_avgp[5]*0.000101325
variable sig6 equal -f_avgp[4]*0.000101325

# Reset box and simulation parameters
clear
# box tilt large
read_restart equil.res
Reading restart file ...
  restart file = 2 Aug 2023, LAMMPS = 2 Aug 2023
  restoring atom style full from restart
  triclinic box = (0 0 0) to (15.724 13.9031 17.2465) with tilt (-7.584 0.1778 0.4371)
  pair style reaxff stores no restart info
  366 atoms
Finding 1-2 1-3 1-4 neighbors ...
     0 = max # of 1-2 neighbors
     0 = max # of 1-3 neighbors
     0 = max # of 1-4 neighbors
     1 = max # of special neighbors
  read_restart CPU = 0.002 seconds

# Negative deformation
variable delta equal -0.1*17.2465
variable deltaxy equal -0.1*xy
variable deltaxz equal -0.1*xz
variable deltayz equal -0.1*yz
print "*****debug*****"
*****debug*****
xy = -7.5839999999999996305, deltaxy = 0.7584
xz = 0.17780000000000001359, deltaxz = -0.01778
yz = 0.43709999999999998854, deltayz = -0.04371
print "*****"
*****

fix deform_n all deform 100 xy delta -1.72465 remap v units box flip no

# Run MD for Negative deformation
*****Negative-deform 6 starts.*****
include ff.mod.lmp
# Setup forcefield, system
# undefine any fix ave/* fix before using reset_timestep
if "$(is_defined(fix,avgp))" then "unfix avgp"
if "$(is_defined(fix,avgl))" then "unfix avgl"
reset_timestep 0

# Assign the force field
pair_style reaxff NULL safezone 3.0 mincap 150
# pair_coeff * * CHONSSi.ff O Si
# pair_coeff * * CHOSiNa.ff O Si
# pair_coeff * * SiOCHN_2018.ff O Si
# pair_coeff * * PDMSDecomp.ff Si O
pair_coeff * * CHONSi.ff C H O Si
# pair_coeff * * CHOFe.ff O Si

# charge method for reaxff
fix myqeq all qeq/reaxff 1 0.0 10.0 1.0e-6 reaxff maxiter 400
# Setup neighbor style
neighbor        2 bin
neigh_modify    every 10 delay 0 check no

# Setup output
thermo		100
thermo_style custom step temp pe press vol lx ly lz
# thermo_style custom step vol lx ly lz yz xz xy
thermo_modify norm no
# thermo_modify line multi

# Sample pressure (and length vector)
fix avgp all ave/time  10 10 100 c_thermo_press mode vector
# variable lx equal lx
# variable ly equal ly
# variable lz equal lz

# nvt
fix fnvt all nvt temp 300 300 50
  fix style: nvt, fix ID: fnvt

# save trajectory
dump dump_neg6 all custom 100 dump/neg_deform6.lammpstrj id type q x y z
run 5000
All restart file global fix info was re-assigned
Step          Temp          PotEng         Press          Volume           Lx             Ly             Lz
0   313.86144     -44406.269      4512.7738      3770.2978      15.724         13.9031        17.2465
Averages over the last 26 of 51 rows, steps 2500 to 5000:
Temp PotEng Press Volume Lx Ly Lz
300.79 -44382.6 -7678.97 3770.3 15.724 13.9031 17.2465
Loop time of 161.107 on 8 procs for 5000 steps with 366 atoms

unfix deform_n
unfix data
undump dump_neg6

# Compute elastic constant from pressure
# d1 = -[pxx1-pxx0]/[(v_delta/v_len0] defined in input script

# Reset box and simulation parameters
clear
# box tilt large
read_restart equil.res
Reading restart file ...
  restart file = 2 Aug 2023, LAMMPS = 2 Aug 2023
  restoring atom style full from restart
  triclinic box = (0 0 0) to (15.724 13.9031 17.2465) with tilt (-7.584 0.1778 0.4371)
  pair style reaxff stores no restart info
  366 atoms
Finding 1-2 1-3 1-4 neighbors ...
     0 = max # of 1-2 neighbors
     0 = max # of 1-3 neighbors
     0 = max # of 1-4 neighbors
     1 = max # of special neighbors
  read_restart CPU = 0.002 seconds

# Positive deformation
variable delta equal 0.1*17.2465
variable deltaxy equal 0.1*xy
variable deltaxz equal 0.1*xz
variable deltayz equal 0.1*yz
fix deform_p all deform 100 xy delta 1.72465 remap v units box

# Run deformation MD
*****Positive-deform 6 starts.*****
include ff.mod.lmp
# Setup forcefield, system
# undefine any fix ave/* fix before using reset_timestep
if "$(is_defined(fix,avgp))" then "unfix avgp"
if "$(is_defined(fix,avgl))" then "unfix avgl"
reset_timestep 0

# Assign the force field
pair_style reaxff NULL safezone 3.0 mincap 150
# pair_coeff * * CHONSSi.ff O Si
# pair_coeff * * CHOSiNa.ff O Si
# pair_coeff * * SiOCHN_2018.ff O Si
# pair_coeff * * PDMSDecomp.ff Si O
pair_coeff * * CHONSi.ff C H O Si
# pair_coeff * * CHOFe.ff O Si

# charge method for reaxff
fix myqeq all qeq/reaxff 1 0.0 10.0 1.0e-6 reaxff maxiter 400
# Setup neighbor style
neighbor        2 bin
neigh_modify    every 10 delay 0 check no

# Setup output
thermo		100
thermo_style custom step temp pe press vol lx ly lz
# thermo_style custom step vol lx ly lz yz xz xy
thermo_modify norm no
# thermo_modify line multi

# Sample pressure (and length vector)
fix avgp all ave/time  10 10 100 c_thermo_press mode vector
# variable lx equal lx
# variable ly equal ly
# variable lz equal lz

# nvt
fix fnvt all nvt temp 300 300 50
  fix style: nvt, fix ID: fnvt

# save trajectory
dump dump_pos6 all custom 100 dump/pos_deform6.lammpstrj id type q x y z
run 5000
All restart file global fix info was re-assigned
Step          Temp          PotEng         Press          Volume           Lx             Ly             Lz
0   313.86144     -44406.269      4512.7738      3770.2978      15.724         13.9031        17.2465
Averages over the last 26 of 51 rows, steps 2500 to 5000:
Temp PotEng Press Volume Lx Ly Lz
303.204 -44364.7 -1915.55 3770.3 15.724 13.9031 17.2465
Loop time of 157.956 on 8 procs for 5000 steps with 366 atoms

unfix deform_p
unfix data
undump dump_pos6

# # Combine positive and negative

# Delete dir to make sure it is not reused
variable dir delete

# Calc and output
# include calc.mod.lmp
