
#======================================================================
# CRYSTAL DATA
#----------------------------------------------------------------------
data_VESTA_phase_1

_chemical_name_common                  '333-C50-31                            '
_cell_length_a                         15.411447
_cell_length_b                         14.342442
_cell_length_c                         17.601688
_cell_angle_alpha                      86.059235
_cell_angle_beta                       95.954819
_cell_angle_gamma                      120.145218
_cell_volume                           3345.670289
_space_group_name_H-M_alt              'P 1'
_space_group_IT_number                 1

loop_
_space_group_symop_operation_xyz
   'x, y, z'

loop_
   _atom_site_label
   _atom_site_occupancy
   _atom_site_fract_x
   _atom_site_fract_y
   _atom_site_fract_z
   _atom_site_adp_type
   _atom_site_U_iso_or_equiv
   _atom_site_type_symbol
   Si1        1.0     0.226625     0.051480     0.037616    Uiso  ? Si
   Si2        1.0     0.012873     0.172939     0.202954    Uiso  ? Si
   Si3        1.0     0.196475     0.977119     0.506069    Uiso  ? Si
   Si4        1.0     0.884137     0.110026     0.977553    Uiso  ? Si
   Si5        1.0     0.205289     0.229151     0.691110    Uiso  ? Si
   Si6        1.0     0.974670     0.483858     0.223841    Uiso  ? Si
   Si7        1.0     0.089404     0.369242     0.893157    Uiso  ? Si
   Si8        1.0     0.170390     0.364622     0.469320    Uiso  ? Si
   Si9        1.0     0.052685     0.522130     0.615241    Uiso  ? Si
   Si10       1.0     0.134445     0.516945     0.352683    Uiso  ? Si
   Si11       1.0     0.947508     0.470569     0.895995    Uiso  ? Si
   Si12       1.0     0.132349     0.645475     0.116244    Uiso  ? Si
   Si13       1.0     0.007705     0.840508     0.203134    Uiso  ? Si
   Si14       1.0     0.113944     0.808740     0.987183    Uiso  ? Si
   Si15       1.0     0.121770     0.662569     0.466252    Uiso  ? Si
   Si16       1.0     0.063614     0.838375     0.633572    Uiso  ? Si
   Si17       1.0     0.201190     0.956418     0.777334    Uiso  ? Si
   Si18       1.0     0.424177     0.952880     0.082102    Uiso  ? Si
   Si19       1.0     0.335177     0.165252     0.186692    Uiso  ? Si
   Si20       1.0     0.526187     0.177324     0.994129    Uiso  ? Si
   Si21       1.0     0.551825     0.957895     0.507660    Uiso  ? Si
   Si22       1.0     0.333249     0.189347     0.585361    Uiso  ? Si
   Si23       1.0     0.550067     0.005320     0.767462    Uiso  ? Si
   Si24       1.0     0.497427     0.160389     0.670810    Uiso  ? Si
   Si25       1.0     0.509967     0.345533     0.092223    Uiso  ? Si
   Si26       1.0     0.328864     0.553409     0.285279    Uiso  ? Si
   Si27       1.0     0.483843     0.466232     0.954299    Uiso  ? Si
   Si28       1.0     0.494061     0.373875     0.475133    Uiso  ? Si
   Si29       1.0     0.521105     0.352959     0.757778    Uiso  ? Si
   Si30       1.0     0.519417     0.567131     0.704270    Uiso  ? Si
   Si31       1.0     0.417201     0.642458     0.131183    Uiso  ? Si
   Si32       1.0     0.403312     0.772772     0.987510    Uiso  ? Si
   Si33       1.0     0.540278     0.871359     0.346520    Uiso  ? Si
   Si34       1.0     0.729495     0.058602     0.087230    Uiso  ? Si
   Si35       1.0     0.904956     0.016802     0.435323    Uiso  ? Si
   Si36       1.0     0.879092     0.170728     0.316206    Uiso  ? Si
   Si37       1.0     0.882955     0.000323     0.733306    Uiso  ? Si
   Si38       1.0     0.792898     0.289241     0.136442    Uiso  ? Si
   Si39       1.0     0.658910     0.502837     0.214442    Uiso  ? Si
   Si40       1.0     0.813801     0.463664     0.016485    Uiso  ? Si
   Si41       1.0     0.805890     0.283266     0.409049    Uiso  ? Si
   Si42       1.0     0.826300     0.495341     0.331382    Uiso  ? Si
   Si43       1.0     0.792824     0.275852     0.794962    Uiso  ? Si
   Si44       1.0     0.671104     0.493967     0.884656    Uiso  ? Si
   Si45       1.0     0.845897     0.504782     0.622173    Uiso  ? Si
   Si46       1.0     0.828892     0.651414     0.110043    Uiso  ? Si
   Si47       1.0     0.816199     0.797766     0.965598    Uiso  ? Si
   Si48       1.0     0.837218     0.669267     0.431182    Uiso  ? Si
   Si49       1.0     0.717987     0.827344     0.507336    Uiso  ? Si
   Si50       1.0     0.873547     0.851906     0.318214    Uiso  ? Si
   Si51       1.0     0.847800     0.808081     0.640487    Uiso  ? Si
   H1         1.0     0.322298     0.069898     0.011704    Uiso  ? H
   H2         1.0     0.065628     0.121854     0.248055    Uiso  ? H
   H3         1.0     0.922214     0.087682     0.159784    Uiso  ? H
   H4         1.0     0.276036     0.949420     0.531346    Uiso  ? H
   H5         1.0     0.856476     0.066615     0.899139    Uiso  ? H
   H6         1.0     0.977747     0.111145     0.009336    Uiso  ? H
   H7         1.0     0.118406     0.118540     0.680518    Uiso  ? H
   H8         1.0     0.175237     0.309895     0.662685    Uiso  ? H
   H9         1.0     0.240430     0.248268     0.773777    Uiso  ? H
   H10        1.0     0.172925     0.398181     0.954330    Uiso  ? H
   H11        1.0     0.099255     0.296400     0.527081    Uiso  ? H
   H12        1.0     0.137112     0.607940     0.663381    Uiso  ? H
   H13        1.0     0.029355     0.248638     0.889943    Uiso  ? H
   H14        1.0     0.224350     0.717119     0.165005    Uiso  ? H
   H15        1.0     0.011944     0.765439     0.947036    Uiso  ? H
   H16        1.0     0.190429     0.827169     0.934249    Uiso  ? H
   H17        1.0     0.076405     0.731871     0.448899    Uiso  ? H
   H18        1.0     0.137008     0.926699     0.842637    Uiso  ? H
   H19        1.0     0.271429     0.075068     0.778925    Uiso  ? H
   H20        1.0     0.328030     0.927083     0.112313    Uiso  ? H
   H21        1.0     0.486834     0.927458     0.140470    Uiso  ? H
   H22        1.0     0.628606     0.204364     0.978352    Uiso  ? H
   H23        1.0     0.481952     0.888904     0.750179    Uiso  ? H
   H24        1.0     0.640525     0.048308     0.723179    Uiso  ? H
   H25        1.0     0.561267     0.164886     0.612288    Uiso  ? H
   H26        1.0     0.278610     0.440445     0.258236    Uiso  ? H
   H27        1.0     0.415966     0.576066     0.341193    Uiso  ? H
   H28        1.0     0.416075     0.362637     0.914188    Uiso  ? H
   H29        1.0     0.578829     0.459222     0.522714    Uiso  ? H
   H30        1.0     0.441934     0.424004     0.427105    Uiso  ? H
   H31        1.0     0.419665     0.287670     0.785031    Uiso  ? H
   H32        1.0     0.596463     0.644961     0.761319    Uiso  ? H
   H33        1.0     0.386079     0.529962     0.111433    Uiso  ? H
   H34        1.0     0.509480     0.806841     0.975521    Uiso  ? H
   H35        1.0     0.618396     0.967090     0.305484    Uiso  ? H
   H36        1.0     0.551039     0.776566     0.331749    Uiso  ? H
   H37        1.0     0.633776     0.039758     0.044902    Uiso  ? H
   H38        1.0     0.708981     0.987759     0.156236    Uiso  ? H
   H39        1.0     0.790990     0.082754     0.273933    Uiso  ? H
   H40        1.0     0.898350     0.220468     0.975997    Uiso  ? H
   H41        1.0     0.700137     0.193890     0.412716    Uiso  ? H
   H42        1.0     0.063725     0.424793     0.617980    Uiso  ? H
   H43        1.0     0.803731     0.188175     0.837057    Uiso  ? H
   H44        1.0     0.841328     0.299139     0.721935    Uiso  ? H
   H45        1.0     0.743501     0.588512     0.841876    Uiso  ? H
   H46        1.0     0.684569     0.241451     0.778964    Uiso  ? H
   H47        1.0     0.878338     0.593717     0.564059    Uiso  ? H
   H48        1.0     0.900461     0.908775     0.982702    Uiso  ? H
   H49        1.0     0.840654     0.759941     0.898220    Uiso  ? H
   H50        1.0     0.924165     0.737818     0.484112    Uiso  ? H
   H51        1.0     0.743977     0.591987     0.467942    Uiso  ? H
   H52        1.0     0.084211     0.748057     0.646830    Uiso  ? H
   H53        1.0     0.642133     0.740558     0.456725    Uiso  ? H
   H54        1.0     0.674077     0.858814     0.564819    Uiso  ? H
   H55        1.0     0.781152     0.732281     0.697385    Uiso  ? H
   H56        1.0     0.053021     0.310565     0.100459    Uiso  ? H
   H57        1.0     0.126912     0.247289     0.098639    Uiso  ? H
   H58        1.0     0.158787     0.346974     0.167730    Uiso  ? H
   H59        1.0     0.114688     0.000364     0.383997    Uiso  ? H
   H60        1.0     0.138869     0.892435     0.380340    Uiso  ? H
   H61        1.0     0.240120     0.028076     0.375110    Uiso  ? H
   H62        1.0     0.178028     0.513038     0.796466    Uiso  ? H
   H63        1.0     0.076039     0.394926     0.752987    Uiso  ? H
   H64        1.0     0.190459     0.398327     0.784594    Uiso  ? H
   H65        1.0     0.249633     0.333091     0.365907    Uiso  ? H
   H66        1.0     0.123826     0.226728     0.372338    Uiso  ? H
   H67        1.0     0.221729     0.233270     0.439186    Uiso  ? H
   H68        1.0     0.343178     0.524282     0.478257    Uiso  ? H
   H69        1.0     0.326844     0.428699     0.553457    Uiso  ? H
   H70        1.0     0.276870     0.516039     0.558015    Uiso  ? H
   H71        1.0     0.975057     0.642196     0.835090    Uiso  ? H
   H72        1.0     0.028323     0.582782     0.783977    Uiso  ? H
   H73        1.0     0.090564     0.650402     0.871228    Uiso  ? H
   H74        1.0     0.065728     0.473011     0.053268    Uiso  ? H
   H75        1.0     0.178027     0.505352     0.112026    Uiso  ? H
   H76        1.0     0.185509     0.567926     0.020857    Uiso  ? H
   H77        1.0     0.164759     0.847084     0.176836    Uiso  ? H
   H78        1.0     0.121294     0.779360     0.265497    Uiso  ? H
   H79        1.0     0.183451     0.923037     0.258065    Uiso  ? H
   H80        1.0     0.933745     0.943564     0.135632    Uiso  ? H
   H81        1.0     0.018594     0.934995     0.079847    Uiso  ? H
   H82        1.0     0.066438     0.027892     0.155662    Uiso  ? H
   H83        1.0     0.111443     0.122890     0.997597    Uiso  ? H
   H84        1.0     0.178188     0.124489     0.920576    Uiso  ? H
   H85        1.0     0.240222     0.224424     0.992200    Uiso  ? H
   H86        1.0     0.302512     0.801756     0.471349    Uiso  ? H
   H87        1.0     0.282606     0.678256     0.515525    Uiso  ? H
   H88        1.0     0.259501     0.767175     0.564572    Uiso  ? H
   H89        1.0     0.212992     0.790857     0.778952    Uiso  ? H
   H90        1.0     0.318469     0.893987     0.832047    Uiso  ? H
   H91        1.0     0.312206     0.899639     0.730486    Uiso  ? H
   H92        1.0     0.441501     0.078471     0.202480    Uiso  ? H
   H93        1.0     0.361388     0.041140     0.277948    Uiso  ? H
   H94        1.0     0.471967     0.170359     0.276256    Uiso  ? H
   H95        1.0     0.229066     0.155823     0.287968    Uiso  ? H
   H96        1.0     0.251727     0.262960     0.221399    Uiso  ? H
   H97        1.0     0.348091     0.276071     0.291710    Uiso  ? H
   H98        1.0     0.391113     0.048431     0.904183    Uiso  ? H
   H99        1.0     0.484662     0.160616     0.855503    Uiso  ? H
   H100       1.0     0.392580     0.173525     0.899728    Uiso  ? H
   H101       1.0     0.472723     0.072898     0.505502    Uiso  ? H
   H102       1.0     0.403798     0.966086     0.440500    Uiso  ? H
   H103       1.0     0.519992     0.079134     0.416495    Uiso  ? H
   H104       1.0     0.737155     0.075071     0.508855    Uiso  ? H
   H105       1.0     0.700127     0.034898     0.603035    Uiso  ? H
   H106       1.0     0.684402     0.139142     0.555194    Uiso  ? H
   H107       1.0     0.436739     0.777675     0.563964    Uiso  ? H
   H108       1.0     0.438310     0.881209     0.614386    Uiso  ? H
   H109       1.0     0.540346     0.856138     0.629923    Uiso  ? H
   H110       1.0     0.633981     0.101545     0.889443    Uiso  ? H
   H111       1.0     0.622399     0.971666     0.889840    Uiso  ? H
   H112       1.0     0.516439     0.984031     0.903498    Uiso  ? H
   H113       1.0     0.592386     0.363854     0.375757    Uiso  ? H
   H114       1.0     0.473166     0.243565     0.380863    Uiso  ? H
   H115       1.0     0.574034     0.268066     0.450527    Uiso  ? H
   H116       1.0     0.333890     0.487407     0.682542    Uiso  ? H
   H117       1.0     0.388845     0.608153     0.735038    Uiso  ? H
   H118       1.0     0.370331     0.485975     0.781477    Uiso  ? H
   H119       1.0     0.545431     0.699767     0.599466    Uiso  ? H
   H120       1.0     0.487366     0.567064     0.563880    Uiso  ? H
   H121       1.0     0.618179     0.635837     0.592218    Uiso  ? H
   H122       1.0     0.427535     0.582996     0.883101    Uiso  ? H
   H123       1.0     0.480662     0.631000     0.976278    Uiso  ? H
   H124       1.0     0.356344     0.517898     0.963640    Uiso  ? H
   H125       1.0     0.573843     0.817426     0.142556    Uiso  ? H
   H126       1.0     0.594447     0.721971     0.099405    Uiso  ? H
   H127       1.0     0.585281     0.716930     0.199211    Uiso  ? H
   H128       1.0     0.295868     0.621215     0.901375    Uiso  ? H
   H129       1.0     0.349845     0.745788     0.849509    Uiso  ? H
   H130       1.0     0.246630     0.709790     0.904488    Uiso  ? H
   H131       1.0     0.353645     0.783499     0.344337    Uiso  ? H
   H132       1.0     0.394974     0.822597     0.251584    Uiso  ? H
   H133       1.0     0.408578     0.921724     0.314387    Uiso  ? H
   H134       1.0     0.073973     0.114422     0.498413    Uiso  ? H
   H135       1.0     0.001303     0.990826     0.546948    Uiso  ? H
   H136       1.0     0.982585     0.101256     0.558726    Uiso  ? H
   H137       1.0     0.925532     0.189004     0.745845    Uiso  ? H
   H138       1.0     0.866815     0.142579     0.653378    Uiso  ? H
   H139       1.0     0.995241     0.180513     0.675151    Uiso  ? H
   H140       1.0     0.049155     0.035067     0.789767    Uiso  ? H
   H141       1.0     0.952941     0.918810     0.833330    Uiso  ? H
   H142       1.0     0.982303     0.049282     0.860253    Uiso  ? H
   H143       1.0     0.727061     0.845467     0.780681    Uiso  ? H
   H144       1.0     0.699438     0.922016     0.708889    Uiso  ? H
   H145       1.0     0.738137     0.970533     0.803671    Uiso  ? H
   H146       1.0     0.693443     0.179772     0.241652    Uiso  ? H
   H147       1.0     0.616972     0.192803     0.163737    Uiso  ? H
   H148       1.0     0.685528     0.299805     0.228597    Uiso  ? H
   H149       1.0     0.523191     0.458639     0.296025    Uiso  ? H
   H150       1.0     0.513517     0.530593     0.212593    Uiso  ? H
   H151       1.0     0.604064     0.600486     0.290303    Uiso  ? H
   H152       1.0     0.963183     0.369599     0.488014    Uiso  ? H
   H153       1.0     0.899016     0.228723     0.506093    Uiso  ? H
   H154       1.0     0.861061     0.310815     0.548071    Uiso  ? H
   H155       1.0     0.731712     0.306701     0.610276    Uiso  ? H
   H156       1.0     0.744241     0.373767     0.519076    Uiso  ? H
   H157       1.0     0.668602     0.380594     0.585795    Uiso  ? H
   H158       1.0     0.785518     0.476085     0.751346    Uiso  ? H
   H159       1.0     0.738896     0.546663     0.689610    Uiso  ? H
   H160       1.0     0.864495     0.616066     0.731655    Uiso  ? H
   H161       1.0     0.636530     0.719498     0.921653    Uiso  ? H
   H162       1.0     0.703403     0.861613     0.905060    Uiso  ? H
   H163       1.0     0.671393     0.810765     0.998539    Uiso  ? H
   H164       1.0     0.753328     0.793930     0.205266    Uiso  ? H
   H165       1.0     0.820361     0.936985     0.210714    Uiso  ? H
   H166       1.0     0.721886     0.859317     0.270973    Uiso  ? H
   C1         1.0     0.095811     0.279310     0.136267    Uiso  ? C
   C2         1.0     0.169618     0.974004     0.401727    Uiso  ? C
   C3         1.0     0.138021     0.424424     0.798258    Uiso  ? C
   C4         1.0     0.193423     0.281682     0.406068    Uiso  ? C
   C5         1.0     0.290393     0.468535     0.519231    Uiso  ? C
   C6         1.0     0.016731     0.598175     0.841326    Uiso  ? C
   C7         1.0     0.141411     0.538426     0.070829    Uiso  ? C
   C8         1.0     0.130825     0.848136     0.228275    Uiso  ? C
   C9         1.0     0.006884     0.947382     0.137767    Uiso  ? C
   C10        1.0     0.185029     0.138879     0.982082    Uiso  ? C
   C11        1.0     0.253573     0.734743     0.508316    Uiso  ? C
   C12        1.0     0.267486     0.877778     0.780086    Uiso  ? C
   C13        1.0     0.409219     0.108419     0.240466    Uiso  ? C
   C14        1.0     0.285704     0.218935     0.252922    Uiso  ? C
   C15        1.0     0.440188     0.136354     0.905338    Uiso  ? C
   C16        1.0     0.480010     0.024494     0.463517    Uiso  ? C
   C17        1.0     0.680215     0.061644     0.547376    Uiso  ? C
   C18        1.0     0.485591     0.859157     0.586061    Uiso  ? C
   C19        1.0     0.584097     0.017811     0.871957    Uiso  ? C
   C20        1.0     0.537564     0.306517     0.414797    Uiso  ? C
   C21        1.0     0.391376     0.533788     0.728183    Uiso  ? C
   C22        1.0     0.544895     0.622789     0.605806    Uiso  ? C
   C23        1.0     0.431995     0.557996     0.943024    Uiso  ? C
   C24        1.0     0.555185     0.732595     0.143801    Uiso  ? C
   C25        1.0     0.315780     0.705998     0.902784    Uiso  ? C
   C26        1.0     0.412581     0.847834     0.311374    Uiso  ? C
   C27        1.0     0.998970     0.059289     0.517562    Uiso  ? C
   C28        1.0     0.921048     0.140559     0.698265    Uiso  ? C
   C29        1.0     0.974710     0.000824     0.811741    Uiso  ? C
   C30        1.0     0.749712     0.927921     0.759768    Uiso  ? C
   C31        1.0     0.688282     0.236726     0.199052    Uiso  ? C
   C32        1.0     0.566793     0.526126     0.257138    Uiso  ? C
   C33        1.0     0.888991     0.299258     0.496805    Uiso  ? C
   C34        1.0     0.738240     0.379187     0.579933    Uiso  ? C
   C35        1.0     0.805956     0.539430     0.706858    Uiso  ? C
   C36        1.0     0.694978     0.796753     0.945772    Uiso  ? C
   C37        1.0     0.784486     0.861760     0.244400    Uiso  ? C
   O1         1.0     0.055750     0.463568     0.278879    Uiso  ? O
   O2         1.0     0.115307     0.425012     0.418133    Uiso  ? O
   O3         1.0     0.017323     0.414804     0.917301    Uiso  ? O
   O4         1.0     0.036548     0.587914     0.169447    Uiso  ? O
   O5         1.0     0.111847     0.722384     0.052418    Uiso  ? O
   O6         1.0     0.142952     0.923614     0.024007    Uiso  ? O
   O7         1.0     0.054091     0.566122     0.526723    Uiso  ? O
   O8         1.0     0.118025     0.610196     0.384940    Uiso  ? O
   O9         1.0     0.094550     0.892337     0.548952    Uiso  ? O
   O10        1.0     0.127785     0.931203     0.697119    Uiso  ? O
   O11        1.0     0.243235     0.074741     0.129875    Uiso  ? O
   O12        1.0     0.488426     0.081306     0.061037    Uiso  ? O
   O13        1.0     0.236349     0.101416     0.533533    Uiso  ? O
   O14        1.0     0.298750     0.246696     0.642824    Uiso  ? O
   O15        1.0     0.383131     0.123391     0.633627    Uiso  ? O
   O16        1.0     0.489628     0.071337     0.736692    Uiso  ? O
   O17        1.0     0.405610     0.266232     0.130091    Uiso  ? O
   O18        1.0     0.533836     0.283252     0.031338    Uiso  ? O
   O19        1.0     0.249975     0.572789     0.327909    Uiso  ? O
   O20        1.0     0.497822     0.441841     0.046066    Uiso  ? O
   O21        1.0     0.413567     0.283473     0.532903    Uiso  ? O
   O22        1.0     0.545299     0.281190     0.704236    Uiso  ? O
   O23        1.0     0.530437     0.457469     0.709189    Uiso  ? O
   O24        1.0     0.366579     0.635383     0.211009    Uiso  ? O
   O25        1.0     0.369706     0.692562     0.063289    Uiso  ? O
   O26        1.0     0.398108     0.881563     0.004876    Uiso  ? O
   O27        1.0     0.562734     0.889781     0.439765    Uiso  ? O
   O28        1.0     0.790598     0.029308     0.030656    Uiso  ? O
   O29        1.0     0.975237     0.224228     0.264822    Uiso  ? O
   O30        1.0     0.905930     0.124681     0.397252    Uiso  ? O
   O31        1.0     0.800191     0.185573     0.110505    Uiso  ? O
   O32        1.0     0.904353     0.375575     0.174511    Uiso  ? O
   O33        1.0     0.601300     0.397545     0.158959    Uiso  ? O
   O34        1.0     0.915561     0.494596     0.975325    Uiso  ? O
   O35        1.0     0.771341     0.346430     0.058518    Uiso  ? O
   O36        1.0     0.853084     0.262876     0.336093    Uiso  ? O
   O37        1.0     0.906681     0.510480     0.272942    Uiso  ? O
   O38        1.0     0.721707     0.473879     0.283394    Uiso  ? O
   O39        1.0     0.799173     0.392990     0.389274    Uiso  ? O
   O40        1.0     0.844029     0.384514     0.847151    Uiso  ? O
   O41        1.0     0.606093     0.389033     0.830142    Uiso  ? O
   O42        1.0     0.727838     0.458594     0.952903    Uiso  ? O
   O43        1.0     0.593971     0.525591     0.917925    Uiso  ? O
   O44        1.0     0.945934     0.490243     0.648749    Uiso  ? O
   O45        1.0     0.734385     0.606886     0.163596    Uiso  ? O
   O46        1.0     0.837682     0.552269     0.079453    Uiso  ? O
   O47        1.0     0.931756     0.725050     0.160746    Uiso  ? O
   O48        1.0     0.808092     0.717152     0.038913    Uiso  ? O
   O49        1.0     0.873161     0.602457     0.382207    Uiso  ? O
   O50        1.0     0.789105     0.934907     0.457291    Uiso  ? O
   O51        1.0     0.961602     0.839980     0.283937    Uiso  ? O
   O52        1.0     0.807799     0.745524     0.372436    Uiso  ? O
   O53        1.0     0.932511     0.959889     0.371397    Uiso  ? O
   O54        1.0     0.944035     0.789932     0.639975    Uiso  ? O
   O55        1.0     0.788140     0.781302     0.555087    Uiso  ? O
   O56        1.0     0.884443     0.931914     0.660949    Uiso  ? O
