
#======================================================================
# CRYSTAL DATA
#----------------------------------------------------------------------
data_VESTA_phase_1

_chemical_name_common                  '333-RV-27                             '
_cell_length_a                         15.144723
_cell_length_b                         15.132311
_cell_length_c                         16.520493
_cell_angle_alpha                      87.142418
_cell_angle_beta                       92.208473
_cell_angle_gamma                      120.575531
_cell_volume                           3255.223888
_space_group_name_H-M_alt              'P 1'
_space_group_IT_number                 1

loop_
_space_group_symop_operation_xyz
   'x, y, z'

loop_
   _atom_site_label
   _atom_site_occupancy
   _atom_site_fract_x
   _atom_site_fract_y
   _atom_site_fract_z
   _atom_site_adp_type
   _atom_site_U_iso_or_equiv
   _atom_site_type_symbol
   Si1        1.0     0.158986    -0.004333     0.092323    Uiso  ? Si
   Si2        1.0    -0.016717     0.103118     0.227301    Uiso  ? Si
   Si3        1.0     0.143325     0.152874    -0.026374    Uiso  ? Si
   Si4        1.0     0.181262     0.958495     0.443730    Uiso  ? Si
   Si5        1.0     0.966155     0.120931     0.592095    Uiso  ? Si
   Si6        1.0     0.137765     0.116811     0.362967    Uiso  ? Si
   Si7        1.0     0.131213     0.274825     0.104829    Uiso  ? Si
   Si8        1.0     0.124523     0.278088     0.472443    Uiso  ? Si
   Si9        1.0     0.019771     0.495994     0.565028    Uiso  ? Si
   Si10       1.0     0.126616     0.454461     0.352377    Uiso  ? Si
   Si11       1.0     0.190569     0.529511     0.687537    Uiso  ? Si
   Si12       1.0     0.172294     0.657821     0.089392    Uiso  ? Si
   Si13       1.0     0.004583     0.819607     0.213051    Uiso  ? Si
   Si14       1.0     0.191964     0.856620     0.990491    Uiso  ? Si
   Si15       1.0     0.176183     0.646140     0.440282    Uiso  ? Si
   Si16       1.0     0.174948     0.806376     0.313061    Uiso  ? Si
   Si17       1.0     0.164344     0.687664     0.777980    Uiso  ? Si
   Si18       1.0     0.964141     0.754912     0.935415    Uiso  ? Si
   Si19       1.0     0.501373     0.216632     0.959345    Uiso  ? Si
   Si20       1.0     0.349426     0.134034     0.536640    Uiso  ? Si
   Si21       1.0     0.648484     0.335994     0.326897    Uiso  ? Si
   Si22       1.0     0.512586     0.022278     0.766693    Uiso  ? Si
   Si23       1.0     0.300846     0.163468     0.850388    Uiso  ? Si
   Si24       1.0     0.517340     0.189983     0.653618    Uiso  ? Si
   Si25       1.0     0.548359     0.431338     0.019247    Uiso  ? Si
   Si26       1.0     0.273999     0.444999     0.227638    Uiso  ? Si
   Si27       1.0     0.460903     0.556718     0.932867    Uiso  ? Si
   Si28       1.0     0.518592     0.344683     0.453046    Uiso  ? Si
   Si29       1.0     0.458364     0.484075     0.345380    Uiso  ? Si
   Si30       1.0     0.462742     0.332660     0.744030    Uiso  ? Si
   Si31       1.0     0.549935     0.549170     0.677131    Uiso  ? Si
   Si32       1.0     0.435777     0.620266     0.107921    Uiso  ? Si
   Si33       1.0     0.340283     0.800936     0.215862    Uiso  ? Si
   Si34       1.0     0.345761     0.831916     0.536713    Uiso  ? Si
   Si35       1.0     0.500028     0.786008     0.329709    Uiso  ? Si
   Si36       1.0     0.346877     0.853741     0.877884    Uiso  ? Si
   Si37       1.0     0.518119     0.865638     0.662195    Uiso  ? Si
   Si38       1.0     0.697264     0.184675     0.268504    Uiso  ? Si
   Si39       1.0     0.723729     0.067812     0.046644    Uiso  ? Si
   Si40       1.0     0.850325     0.963028     0.459153    Uiso  ? Si
   Si41       1.0     0.722585     0.247176     0.562822    Uiso  ? Si
   Si42       1.0     0.871846     0.151774     0.347095    Uiso  ? Si
   Si43       1.0     0.651592     0.149926     0.901422    Uiso  ? Si
   Si44       1.0     0.843338     0.187370     0.685124    Uiso  ? Si
   Si45       1.0     0.829111     0.276163     0.116471    Uiso  ? Si
   Si46       1.0     0.688216     0.530656     0.556496    Uiso  ? Si
   Si47       1.0     0.851588     0.514214     0.657933    Uiso  ? Si
   Si48       1.0     0.618190     0.728515     0.215319    Uiso  ? Si
   Si49       1.0     0.658129     0.822538     0.566054    Uiso  ? Si
   Si50       1.0     0.839264     0.649077     0.783597    Uiso  ? Si
   Si51       1.0     0.807945     0.824812     0.705704    Uiso  ? Si
   C1         1.0     0.244807     0.092094     0.164072    Uiso  ? C
   C2         1.0     0.869395    -0.020744     0.201136    Uiso  ? C
   C3         1.0     0.024408     0.137147     0.925045    Uiso  ? C
   C4         1.0     0.040828     0.109501     0.679760    Uiso  ? C
   C5         1.0     0.272990     0.193537     0.334069    Uiso  ? C
   C6         1.0     0.075184     0.342723     0.046812    Uiso  ? C
   C7         1.0     0.250376     0.344009     0.524994    Uiso  ? C
   C8         1.0     0.000569     0.439821     0.324439    Uiso  ? C
   C9         1.0     0.314969     0.551375     0.653898    Uiso  ? C
   C10        1.0     0.042998     0.573348     0.131630    Uiso  ? C
   C11        1.0     0.211139     0.594499     0.017127    Uiso  ? C
   C12        1.0     0.884874     0.707524     0.176521    Uiso  ? C
   C13        1.0     0.055955     0.580449     0.835888    Uiso  ? C
   C14        1.0     0.139252     0.784804     0.727099    Uiso  ? C
   C15        1.0     0.892512     0.817383     0.965381    Uiso  ? C
   C16        1.0     0.479180     0.143412     0.056307    Uiso  ? C
   C17        1.0     0.243683     0.121531     0.596889    Uiso  ? C
   C18        1.0     0.743103     0.475785     0.317971    Uiso  ? C
   C19        1.0     0.550763     0.288755     0.243787    Uiso  ? C
   C20        1.0     0.221781     0.037256     0.805303    Uiso  ? C
   C21        1.0     0.440348     0.375246     0.091252    Uiso  ? C
   C22        1.0     0.674414     0.510917     0.070806    Uiso  ? C
   C23        1.0     0.344220     0.474904     0.871976    Uiso  ? C
   C24        1.0     0.454832     0.555444     0.431833    Uiso  ? C
   C25        1.0     0.435658     0.907513     0.151391    Uiso  ? C
   C26        1.0     0.432897     0.936701     0.466246    Uiso  ? C
   C27        1.0     0.595445     0.923474     0.318461    Uiso  ? C
   C28        1.0     0.442518     0.842601     0.943820    Uiso  ? C
   C29        1.0     0.509301     0.783059     0.751615    Uiso  ? C
   C30        1.0     0.758037     0.985855     0.991337    Uiso  ? C
   C31        1.0     0.681878     0.131101     0.504664    Uiso  ? C
   C32        1.0     0.782174     0.245721     0.867905    Uiso  ? C
   C33        1.0     0.963832     0.272155     0.741249    Uiso  ? C
   C34        1.0     0.821660     0.372718     0.047283    Uiso  ? C
   C35        1.0     0.745202     0.645134     0.486727    Uiso  ? C
   C36        1.0     0.745283     0.533892     0.841922    Uiso  ? C
   C37        1.0     0.795858     0.907284     0.778957    Uiso  ? C
   O1         1.0     0.118953     0.043944     0.018421    Uiso  ? O
   O2         1.0     0.060671     0.080093     0.283933    Uiso  ? O
   O3         1.0     0.114106     0.011657     0.415319    Uiso  ? O
   O4         1.0     0.040649     0.166381     0.144589    Uiso  ? O
   O5         1.0     0.190117     0.243841     0.040311    Uiso  ? O
   O6         1.0     0.031832     0.228576     0.538812    Uiso  ? O
   O7         1.0     0.107010     0.181542     0.420048    Uiso  ? O
   O8         1.0     0.111580     0.358264     0.411065    Uiso  ? O
   O9         1.0     0.101861     0.474308     0.615969    Uiso  ? O
   O10        1.0     0.055890     0.902491     0.136275    Uiso  ? O
   O11        1.0     0.169119     0.752954     0.039751    Uiso  ? O
   O12        1.0     0.222849     0.947876     0.053000    Uiso  ? O
   O13        1.0     0.078932     0.594012     0.501191    Uiso  ? O
   O14        1.0     0.195720     0.559945     0.403018    Uiso  ? O
   O15        1.0     0.082357     0.779275     0.247572    Uiso  ? O
   O16        1.0     0.145417     0.703187     0.367747    Uiso  ? O
   O17        1.0     0.190966     0.898445     0.369022    Uiso  ? O
   O18        1.0     0.200169     0.638882     0.707844    Uiso  ? O
   O19        1.0     0.088636     0.834685     0.939671    Uiso  ? O
   O20        1.0     0.299283     0.047157     0.467115    Uiso  ? O
   O21        1.0     0.394857     0.170007     0.906213    Uiso  ? O
   O22        1.0     0.231561     0.191533     0.905479    Uiso  ? O
   O23        1.0     0.427754     0.110325     0.592072    Uiso  ? O
   O24        1.0     0.510943     0.125054     0.736486    Uiso  ? O
   O25        1.0     0.550764     0.339496     0.971700    Uiso  ? O
   O26        1.0     0.213694     0.340837     0.176087    Uiso  ? O
   O27        1.0     0.190685     0.462966     0.271677    Uiso  ? O
   O28        1.0     0.532755     0.504920     0.949300    Uiso  ? O
   O29        1.0     0.418458     0.249937     0.496283    Uiso  ? O
   O30        1.0     0.588068     0.303814     0.414450    Uiso  ? O
   O31        1.0     0.348925     0.431779     0.294058    Uiso  ? O
   O32        1.0     0.477516     0.391320     0.380022    Uiso  ? O
   O33        1.0     0.347689     0.253222     0.777355    Uiso  ? O
   O34        1.0     0.494626     0.279771     0.676016    Uiso  ? O
   O35        1.0     0.459470     0.430132     0.699617    Uiso  ? O
   O36        1.0     0.341212     0.541674     0.165800    Uiso  ? O
   O37        1.0     0.421414     0.572245     0.019863    Uiso  ? O
   O38        1.0     0.256709     0.703929     0.163855    Uiso  ? O
   O39        1.0     0.282060     0.847288     0.266404    Uiso  ? O
   O40        1.0     0.280677     0.724374     0.487857    Uiso  ? O
   O41        1.0     0.392269     0.754808     0.280881    Uiso  ? O
   O42        1.0     0.263244     0.742427     0.842454    Uiso  ? O
   O43        1.0     0.401031     0.935781     0.801163    Uiso  ? O
   O44        1.0     0.287823     0.897760     0.929607    Uiso  ? O
   O45        1.0     0.412072     0.811292     0.608760    Uiso  ? O
   O46        1.0     0.542283     0.978518     0.690651    Uiso  ? O
   O47        1.0     0.713602     0.275234     0.327678    Uiso  ? O
   O48        1.0     0.927656     0.021937     0.534515    Uiso  ? O
   O49        1.0     0.627318     0.242981     0.611034    Uiso  ? O
   O50        1.0     0.954681     0.177297     0.276305    Uiso  ? O
   O51        1.0     0.768372     0.138907     0.302381    Uiso  ? O
   O52        1.0     0.843133     0.042430     0.392537    Uiso  ? O
   O53        1.0     0.599323     0.054938     0.838317    Uiso  ? O
   O54        1.0     0.647744     0.094338     0.990365    Uiso  ? O
   O55        1.0     0.584578     0.206018     0.905972    Uiso  ? O
   O56        1.0     0.862641     0.116611     0.623179    Uiso  ? O
   O57        1.0     0.808874     0.260332     0.632940    Uiso  ? O
   O58        1.0     0.728641     0.230751     0.175627    Uiso  ? O
   O59        1.0     0.825034     0.179062     0.070844    Uiso  ? O
   O60        1.0     0.587019     0.433567     0.516550    Uiso  ? O
   O61        1.0     0.650939     0.551156     0.642112    Uiso  ? O
   O62        1.0     0.957278     0.525220     0.626506    Uiso  ? O
   O63        1.0     0.776556     0.501273     0.579919    Uiso  ? O
   O64        1.0     0.545921     0.642071     0.148437    Uiso  ? O
   O65        1.0     0.549896     0.721095     0.292806    Uiso  ? O
   O66        1.0     0.733500     0.887453     0.491089    Uiso  ? O
   O67        1.0     0.615293     0.890678     0.604910    Uiso  ? O
   O68        1.0     0.881260     0.618664     0.705318    Uiso  ? O
   O69        1.0     0.939464     0.720209     0.840984    Uiso  ? O
   O70        1.0     0.716867     0.789781     0.635425    Uiso  ? O
   O71        1.0     0.790735     0.720148     0.753558    Uiso  ? O
   H1         1.0     0.129435     0.886674     0.512888    Uiso  ? H
   H2         1.0     0.950816     0.403744     0.519626    Uiso  ? H
   H3         1.0     0.155838     0.460023     0.761101    Uiso  ? H
   H4         1.0    -0.013428     0.870405     0.279859    Uiso  ? H
   H5         1.0     0.938476     0.662352     0.988557    Uiso  ? H
   H6         1.0     0.527956     0.660374     0.894626    Uiso  ? H
   H7         1.0     0.542730     0.543302     0.287338    Uiso  ? H
   H8         1.0     0.538217     0.366651     0.811231    Uiso  ? H
   H9         1.0     0.579933     0.607659     0.752531    Uiso  ? H
   H10        1.0     0.506628     0.590135     0.614668    Uiso  ? H
   H11        1.0     0.437142     0.718379     0.100019    Uiso  ? H
   H12        1.0     0.271508     0.852985     0.575008    Uiso  ? H
   H13        1.0     0.474587     0.751220     0.415241    Uiso  ? H
   H14        1.0     0.588495     0.103253     0.266076    Uiso  ? H
   H15        1.0     0.667697     0.013639     0.121976    Uiso  ? H
   H16        1.0     0.885615     0.901731     0.419324    Uiso  ? H
   H17        1.0     0.769969     0.342284     0.511460    Uiso  ? H
   H18        1.0     0.911451     0.233900     0.405499    Uiso  ? H
   H19        1.0     0.758115     0.112821     0.737696    Uiso  ? H
   H20        1.0     0.924091     0.321947     0.166771    Uiso  ? H
   H21        1.0     0.800544     0.424200     0.714404    Uiso  ? H
   H22        1.0     0.660554     0.831244     0.173898    Uiso  ? H
   H23        1.0     0.700352     0.708098     0.243627    Uiso  ? H
   H24        1.0     0.571987     0.728226     0.533357    Uiso  ? H
   H25        1.0     0.908694     0.875853     0.664671    Uiso  ? H
   H26        1.0     0.304248     0.161274     0.132553    Uiso  ? H
   H27        1.0     0.281841     0.060757     0.205063    Uiso  ? H
   H28        1.0     0.200872     0.114747     0.199900    Uiso  ? H
   H29        1.0     0.843392     0.926990     0.254781    Uiso  ? H
   H30        1.0     0.888006     0.942774     0.154013    Uiso  ? H
   H31        1.0     0.805679    -0.010803     0.178922    Uiso  ? H
   H32        1.0    -0.003721     0.079098     0.878456    Uiso  ? H
   H33        1.0     0.039806     0.210241     0.895678    Uiso  ? H
   H34        1.0     0.963755     0.113520     0.969469    Uiso  ? H
   H35        1.0     0.066043     0.055410     0.667240    Uiso  ? H
   H36        1.0     0.992494     0.079869     0.733590    Uiso  ? H
   H37        1.0     0.108617     0.183466     0.694591    Uiso  ? H
   H38        1.0     0.283517     0.245360     0.281899    Uiso  ? H
   H39        1.0     0.305778     0.146124     0.320376    Uiso  ? H
   H40        1.0     0.317125     0.241100     0.384696    Uiso  ? H
   H41        1.0     0.063049     0.393661     0.083770    Uiso  ? H
   H42        1.0     0.000638     0.285090     0.021670    Uiso  ? H
   H43        1.0     0.125096     0.388399    -0.003599    Uiso  ? H
   H44        1.0     0.275515     0.425613     0.528320    Uiso  ? H
   H45        1.0     0.308716     0.337390     0.492971    Uiso  ? H
   H46        1.0     0.246740     0.312901     0.586980    Uiso  ? H
   H47        1.0    -0.040178     0.380628     0.279461    Uiso  ? H
   H48        1.0     0.009427     0.512258     0.299019    Uiso  ? H
   H49        1.0     0.952246     0.417325     0.378209    Uiso  ? H
   H50        1.0     0.336817     0.593234     0.595046    Uiso  ? H
   H51        1.0     0.314054     0.478764     0.650362    Uiso  ? H
   H52        1.0     0.373859     0.597946     0.698758    Uiso  ? H
   H53        1.0     0.033508     0.501007     0.157763    Uiso  ? H
   H54        1.0     0.985205     0.555602     0.083306    Uiso  ? H
   H55        1.0     0.028967     0.612842     0.179101    Uiso  ? H
   H56        1.0     0.278317     0.650404     0.982449    Uiso  ? H
   H57        1.0     0.148805     0.552615     0.973231    Uiso  ? H
   H58        1.0     0.229034     0.539970     0.048395    Uiso  ? H
   H59        1.0     0.845196     0.653032     0.227077    Uiso  ? H
   H60        1.0     0.900322     0.667273     0.130561    Uiso  ? H
   H61        1.0     0.832387     0.731160     0.149456    Uiso  ? H
   H62        1.0     0.074837     0.520959     0.853985    Uiso  ? H
   H63        1.0     0.985480     0.544323     0.798725    Uiso  ? H
   H64        1.0     0.039916     0.607525     0.890848    Uiso  ? H
   H65        1.0     0.114169     0.820224     0.770074    Uiso  ? H
   H66        1.0     0.078761     0.748743     0.680571    Uiso  ? H
   H67        1.0     0.209439     0.844945     0.697558    Uiso  ? H
   H68        1.0     0.809255     0.764233     0.960183    Uiso  ? H
   H69        1.0     0.912456     0.885809     0.926573    Uiso  ? H
   H70        1.0     0.911979     0.842005     0.028175    Uiso  ? H
   H71        1.0     0.551836     0.163877     0.087952    Uiso  ? H
   H72        1.0     0.439607     0.061371     0.043950    Uiso  ? H
   H73        1.0     0.430714     0.155078     0.096814    Uiso  ? H
   H74        1.0     0.203734     0.043611     0.624815    Uiso  ? H
   H75        1.0     0.187930     0.130086     0.558043    Uiso  ? H
   H76        1.0     0.269584     0.176417     0.645540    Uiso  ? H
   H77        1.0     0.705639     0.521933     0.315365    Uiso  ? H
   H78        1.0     0.786088     0.491881     0.261716    Uiso  ? H
   H79        1.0     0.798652     0.500362     0.368813    Uiso  ? H
   H80        1.0     0.497972     0.205479     0.251264    Uiso  ? H
   H81        1.0     0.585797     0.303877     0.183967    Uiso  ? H
   H82        1.0     0.505045     0.326181     0.245266    Uiso  ? H
   H83        1.0     0.179482    -0.022999     0.851575    Uiso  ? H
   H84        1.0     0.269122     0.015483     0.772469    Uiso  ? H
   H85        1.0     0.165538     0.039749     0.762745    Uiso  ? H
   H86        1.0     0.436626     0.309330     0.125192    Uiso  ? H
   H87        1.0     0.366095     0.348822     0.060351    Uiso  ? H
   H88        1.0     0.451221     0.431553     0.135864    Uiso  ? H
   H89        1.0     0.738590     0.541199     0.028691    Uiso  ? H
   H90        1.0     0.687270     0.466137     0.119358    Uiso  ? H
   H91        1.0     0.675620     0.575908     0.098776    Uiso  ? H
   H92        1.0     0.298555     0.399264     0.902742    Uiso  ? H
   H93        1.0     0.362108     0.462102     0.811444    Uiso  ? H
   H94        1.0     0.296613     0.510642     0.864986    Uiso  ? H
   H95        1.0     0.528051     0.627518     0.437739    Uiso  ? H
   H96        1.0     0.442058     0.509961     0.488502    Uiso  ? H
   H97        1.0     0.394142     0.574763     0.424586    Uiso  ? H
   H98        1.0     0.395908     0.925255     0.102057    Uiso  ? H
   H99        1.0     0.489127     0.888998     0.124494    Uiso  ? H
   H100       1.0     0.480548     0.977359     0.186008    Uiso  ? H
   H101       1.0     0.394384     0.937216     0.408674    Uiso  ? H
   H102       1.0     0.498958     0.928433     0.454036    Uiso  ? H
   H103       1.0     0.461056     0.010843     0.494076    Uiso  ? H
   H104       1.0     0.623479     0.945017     0.256132    Uiso  ? H
   H105       1.0     0.661444     0.942274     0.358782    Uiso  ? H
   H106       1.0     0.563787     0.971089     0.334368    Uiso  ? H
   H107       1.0     0.504623     0.919085     0.960451    Uiso  ? H
   H108       1.0     0.476045     0.803383     0.914185    Uiso  ? H
   H109       1.0     0.406794     0.798945     0.999909    Uiso  ? H
   H110       1.0     0.525578     0.723010     0.736447    Uiso  ? H
   H111       1.0     0.432467     0.745751     0.777791    Uiso  ? H
   H112       1.0     0.565849     0.829528     0.798049    Uiso  ? H
   H113       1.0     0.787639     0.018290     0.930704    Uiso  ? H
   H114       1.0     0.687810     0.910827     0.983348    Uiso  ? H
   H115       1.0     0.814497     0.972234     0.024444    Uiso  ? H
   H116       1.0     0.648000     0.060915     0.543358    Uiso  ? H
   H117       1.0     0.749750     0.138194     0.476470    Uiso  ? H
   H118       1.0     0.626893     0.123949     0.456585    Uiso  ? H
   H119       1.0     0.777337     0.273786     0.806153    Uiso  ? H
   H120       1.0     0.831830     0.212566     0.867087    Uiso  ? H
   H121       1.0     0.818609     0.312199     0.906596    Uiso  ? H
   H122       1.0     0.027777     0.308303     0.698781    Uiso  ? H
   H123       1.0     0.980904     0.228785     0.788133    Uiso  ? H
   H124       1.0     0.960346     0.333939     0.770268    Uiso  ? H
   H125       1.0     0.824719     0.432232     0.084809    Uiso  ? H
   H126       1.0     0.748939     0.339304     0.012820    Uiso  ? H
   H127       1.0     0.885671     0.410536     0.004881    Uiso  ? H
   H128       1.0     0.690251     0.668852     0.466378    Uiso  ? H
   H129       1.0     0.775059     0.629899     0.432840    Uiso  ? H
   H130       1.0     0.809984     0.709946     0.517126    Uiso  ? H
   H131       1.0     0.784420     0.502430     0.880401    Uiso  ? H
   H132       1.0     0.691190     0.472735     0.802375    Uiso  ? H
   H133       1.0     0.699748     0.551916     0.880850    Uiso  ? H
   H134       1.0     0.784636     0.966872     0.747967    Uiso  ? H
   H135       1.0     0.864544     0.944905     0.818106    Uiso  ? H
   H136       1.0     0.730092     0.859829     0.818422    Uiso  ? H
