
#======================================================================
# CRYSTAL DATA
#----------------------------------------------------------------------
data_VESTA_phase_1

_chemical_name_common                  '333U-50C-5                            '
_cell_length_a                         15.678164
_cell_length_b                         15.265073
_cell_length_c                         17.680292
_cell_angle_alpha                      86.540703
_cell_angle_beta                       93.289146
_cell_angle_gamma                      117.467102
_cell_volume                           3745.487373
_space_group_name_H-M_alt              'P 1'
_space_group_IT_number                 1

loop_
_space_group_symop_operation_xyz
   'x, y, z'

loop_
   _atom_site_label
   _atom_site_occupancy
   _atom_site_fract_x
   _atom_site_fract_y
   _atom_site_fract_z
   _atom_site_adp_type
   _atom_site_U_iso_or_equiv
   _atom_site_type_symbol
   Si1        1.0     0.975906     0.146942     0.186447    Uiso  ? Si
   Si2        1.0     0.132632     0.081125     0.921417    Uiso  ? Si
   Si3        1.0     0.115363     0.000345     0.426513    Uiso  ? Si
   Si4        1.0     0.982716     0.186135     0.509071    Uiso  ? Si
   Si5        1.0     0.124584     0.164681     0.319818    Uiso  ? Si
   Si6        1.0     0.225731     0.026640     0.745246    Uiso  ? Si
   Si7        1.0     0.056396     0.186966     0.805736    Uiso  ? Si
   Si8        1.0     0.093426     0.199299     0.047201    Uiso  ? Si
   Si9        1.0     0.920430     0.424593     0.232092    Uiso  ? Si
   Si10       1.0     0.053021     0.361414     0.966951    Uiso  ? Si
   Si11       1.0     0.181849     0.320718     0.452164    Uiso  ? Si
   Si12       1.0     0.022334     0.523029     0.568234    Uiso  ? Si
   Si13       1.0     0.179720     0.506108     0.365771    Uiso  ? Si
   Si14       1.0     0.219823     0.397439     0.799990    Uiso  ? Si
   Si15       1.0     0.186858     0.492500     0.651174    Uiso  ? Si
   Si16       1.0     0.124204     0.564089     0.159293    Uiso  ? Si
   Si17       1.0     0.082479     0.831863     0.179381    Uiso  ? Si
   Si18       1.0     0.179583     0.718534     0.023841    Uiso  ? Si
   Si19       1.0     0.159279     0.673320     0.454962    Uiso  ? Si
   Si20       1.0     0.004273     0.905414     0.570232    Uiso  ? Si
   Si21       1.0     0.133636     0.831524     0.351607    Uiso  ? Si
   Si22       1.0     0.243296     0.763316     0.819823    Uiso  ? Si
   Si23       1.0     0.190784     0.837369     0.664806    Uiso  ? Si
   Si24       1.0     0.284941     0.156165     0.217193    Uiso  ? Si
   Si25       1.0     0.456591     0.979506     0.417442    Uiso  ? Si
   Si26       1.0     0.300621     0.129664     0.504742    Uiso  ? Si
   Si27       1.0     0.427278     0.104900     0.289193    Uiso  ? Si
   Si28       1.0     0.583149     0.036538     0.823321    Uiso  ? Si
   Si29       1.0     0.357024     0.222128     0.926365    Uiso  ? Si
   Si30       1.0     0.544595     0.185240     0.705888    Uiso  ? Si
   Si31       1.0     0.457847     0.324561     0.141489    Uiso  ? Si
   Si32       1.0     0.357969     0.522966     0.292964    Uiso  ? Si
   Si33       1.0     0.449932     0.503293     0.044876    Uiso  ? Si
   Si34       1.0     0.485689     0.260332     0.413270    Uiso  ? Si
   Si35       1.0     0.334265     0.466778     0.554145    Uiso  ? Si
   Si36       1.0     0.506808     0.463306     0.362605    Uiso  ? Si
   Si37       1.0     0.493753     0.329643     0.790381    Uiso  ? Si
   Si38       1.0     0.266995     0.505014     0.956043    Uiso  ? Si
   Si39       1.0     0.517193     0.499213     0.669194    Uiso  ? Si
   Si40       1.0     0.471058     0.671275     0.154884    Uiso  ? Si
   Si41       1.0     0.468009     0.669862     0.484307    Uiso  ? Si
   Si42       1.0     0.320280     0.846390     0.534092    Uiso  ? Si
   Si43       1.0     0.451909     0.796532     0.346526    Uiso  ? Si
   Si44       1.0     0.552732     0.677111     0.775396    Uiso  ? Si
   Si45       1.0     0.523359     0.857419     0.712030    Uiso  ? Si
   Si46       1.0     0.772191     0.999398     0.147164    Uiso  ? Si
   Si47       1.0     0.575881     0.117513     0.176819    Uiso  ? Si
   Si48       1.0     0.758659     0.188856     0.891092    Uiso  ? Si
   Si49       1.0     0.834702     0.182033     0.618625    Uiso  ? Si
   Si50       1.0     0.749750     0.306951     0.111529    Uiso  ? Si
   Si51       1.0     0.628734     0.468497     0.227913    Uiso  ? Si
   Si52       1.0     0.797611     0.497753     0.008988    Uiso  ? Si
   Si53       1.0     0.842184     0.402058     0.469287    Uiso  ? Si
   Si54       1.0     0.719004     0.550676     0.598373    Uiso  ? Si
   Si55       1.0     0.816749     0.514668     0.316974    Uiso  ? Si
   Si56       1.0     0.878671     0.332874     0.750359    Uiso  ? Si
   Si57       1.0     0.887954     0.533980     0.695699    Uiso  ? Si
   Si58       1.0     0.940774     0.692469     0.066654    Uiso  ? Si
   Si59       1.0     0.620811     0.829086     0.246847    Uiso  ? Si
   Si60       1.0     0.787440     0.840591     0.051974    Uiso  ? Si
   Si61       1.0     0.826839     0.738968     0.503929    Uiso  ? Si
   Si62       1.0     0.584920     0.866356     0.555653    Uiso  ? Si
   Si63       1.0     0.778665     0.844980     0.364555    Uiso  ? Si
   Si64       1.0     0.954879     0.710567     0.806515    Uiso  ? Si
   Si65       1.0     0.669529     0.802532     0.904682    Uiso  ? Si
   Si66       1.0     0.947049     0.890340     0.727738    Uiso  ? Si
   C1         1.0     0.946225     0.246657     0.157655    Uiso  ? C
   C2         1.0     0.097544     0.949196     0.942964    Uiso  ? C
   C3         1.0     0.262509     0.149606     0.696499    Uiso  ? C
   C4         1.0     0.062140     0.188646     0.701578    Uiso  ? C
   C5         1.0     0.938247     0.346310     0.309848    Uiso  ? C
   C6         1.0     0.968732     0.400468     0.003137    Uiso  ? C
   C7         1.0     0.177682     0.665770     0.226808    Uiso  ? C
   C8         1.0     0.155220     0.629624     0.823945    Uiso  ? C
   C9         1.0     0.263369     0.626686     0.654360    Uiso  ? C
   C10        1.0     0.246113     0.098579     0.124069    Uiso  ? C
   C11        1.0     0.322891     0.020454     0.808656    Uiso  ? C
   C12        1.0     0.427479     0.159215     0.966772    Uiso  ? C
   C13        1.0     0.469672     0.091520     0.636752    Uiso  ? C
   C14        1.0     0.646515     0.292934     0.663087    Uiso  ? C
   C15        1.0     0.205046     0.295030     0.087557    Uiso  ? C
   C16        1.0     0.285553     0.408684     0.243322    Uiso  ? C
   C17        1.0     0.539622     0.516596     0.976398    Uiso  ? C
   C18        1.0     0.401946     0.732837     0.110537    Uiso  ? C
   C19        1.0     0.604468     0.530352     0.430946    Uiso  ? C
   C20        1.0     0.434991     0.611911     0.817738    Uiso  ? C
   C21        1.0     0.531870     0.020944     0.104910    Uiso  ? C
   C22        1.0     0.671653     0.223369     0.931067    Uiso  ? C
   C23        1.0     0.726361     0.146094     0.554908    Uiso  ? C
   C24        1.0     0.823724     0.073548     0.679237    Uiso  ? C
   C25        1.0     0.819106     0.471491     0.912381    Uiso  ? C
   C26        1.0     0.606683     0.306701     0.456636    Uiso  ? C
   C27        1.0     0.686028     0.581928     0.167942    Uiso  ? C
   C28        1.0     0.846423     0.645594     0.312130    Uiso  ? C
   C29        1.0     0.906429     0.684258     0.486800    Uiso  ? C
   C30        1.0     0.020233     0.908137     0.156361    Uiso  ? C
   C31        1.0     0.878210     0.867753     0.302541    Uiso  ? C
   C32        1.0     0.792792     0.961274     0.404235    Uiso  ? C
   C33        1.0     0.842439     0.686458     0.853394    Uiso  ? C
   C34        1.0     0.768706     0.918934     0.866956    Uiso  ? C
   C35        1.0     0.561551     0.811863     0.933954    Uiso  ? C
   C36        1.0     0.687027     0.839070     0.566050    Uiso  ? C
   C37        1.0     0.815372     0.824052     0.712591    Uiso  ? C
   H1         1.0     0.958515     0.082976     0.533772    Uiso  ? H
   H2         1.0     0.948422     0.192187     0.429628    Uiso  ? H
   H3         1.0     0.137764    -0.000914     0.787772    Uiso  ? H
   H4         1.0     0.965011     0.181979     0.830433    Uiso  ? H
   H5         1.0     0.044215     0.362368     0.883244    Uiso  ? H
   H6         1.0     0.114036     0.477828     0.299074    Uiso  ? H
   H7         1.0     0.303589     0.395317     0.767868    Uiso  ? H
   H8         1.0     0.176917     0.504241     0.159825    Uiso  ? H
   H9         1.0     0.185974     0.881838     0.161197    Uiso  ? H
   H10        1.0     0.102213     0.726111     0.975856    Uiso  ? H
   H11        1.0     0.253797     0.720726     0.973747    Uiso  ? H
   H12        1.0     0.228095     0.805588     0.072780    Uiso  ? H
   H13        1.0     0.237577     0.891663     0.341849    Uiso  ? H
   H14        1.0     0.342089     0.781369     0.845921    Uiso  ? H
   H15        1.0     0.212192     0.819860     0.867650    Uiso  ? H
   H16        1.0     0.043902     0.834845     0.579669    Uiso  ? H
   H17        1.0     0.092989     0.754836     0.661364    Uiso  ? H
   H18        1.0     0.545366     0.063236     0.445478    Uiso  ? H
   H19        1.0     0.294526     0.061377     0.568866    Uiso  ? H
   H20        1.0     0.512524     0.004374     0.883907    Uiso  ? H
   H21        1.0     0.350479     0.289106     0.980487    Uiso  ? H
   H22        1.0     0.271636     0.204532     0.525145    Uiso  ? H
   H23        1.0     0.450576     0.257133     0.083170    Uiso  ? H
   H24        1.0     0.589386     0.381649     0.829235    Uiso  ? H
   H25        1.0     0.548023     0.644985     0.493309    Uiso  ? H
   H26        1.0     0.355957     0.763094     0.310351    Uiso  ? H
   H27        1.0     0.298845     0.611956     0.957990    Uiso  ? H
   H28        1.0     0.390187     0.834568     0.586062    Uiso  ? H
   H29        1.0     0.417796     0.806472     0.711601    Uiso  ? H
   H30        1.0     0.754463     0.080765     0.113880    Uiso  ? H
   H31        1.0     0.631321     0.098432     0.241348    Uiso  ? H
   H32        1.0     0.829744     0.181625     0.946968    Uiso  ? H
   H33        1.0     0.785706     0.254515     0.065535    Uiso  ? H
   H34        1.0     0.735614     0.547807     0.004327    Uiso  ? H
   H35        1.0     0.783114     0.389153     0.535194    Uiso  ? H
   H36        1.0     0.820844     0.306823     0.436851    Uiso  ? H
   H37        1.0     0.721143     0.490125     0.538090    Uiso  ? H
   H38        1.0    -0.017746     0.369451     0.766855    Uiso  ? H
   H39        1.0     0.974285     0.749486    -0.005751    Uiso  ? H
   H40        1.0     0.885829     0.885266     0.021750    Uiso  ? H
   H41        1.0     0.862381     0.708599     0.095337    Uiso  ? H
   H42        1.0     0.776765     0.776642     0.120566    Uiso  ? H
   H43        1.0     0.600317     0.942042     0.494898    Uiso  ? H
   H44        1.0     0.034250     0.727285     0.862748    Uiso  ? H
   H45        1.0     0.973519     0.962077     0.787576    Uiso  ? H
   H46        1.0     0.917034     0.235689     0.099238    Uiso  ? H
   H47        1.0     0.008551     0.319972     0.160117    Uiso  ? H
   H48        1.0     0.890578     0.243946     0.193563    Uiso  ? H
   H49        1.0     0.139620     0.941632    -0.007385    Uiso  ? H
   H50        1.0     0.109065     0.912965     0.895683    Uiso  ? H
   H51        1.0     0.021067     0.909718     0.956618    Uiso  ? H
   H52        1.0     0.208871     0.144921     0.652144    Uiso  ? H
   H53        1.0     0.332653     0.177706     0.670696    Uiso  ? H
   H54        1.0     0.268295     0.203453     0.737598    Uiso  ? H
   H55        1.0     0.137205     0.221276     0.684805    Uiso  ? H
   H56        1.0     0.032146     0.236247     0.676001    Uiso  ? H
   H57        1.0     0.023886     0.115420     0.677446    Uiso  ? H
   H58        1.0    -0.012577     0.317002     0.296801    Uiso  ? H
   H59        1.0     0.868113     0.283124     0.322129    Uiso  ? H
   H60        1.0     0.966145     0.387159     0.362046    Uiso  ? H
   H61        1.0     0.983380     0.471835     0.974894    Uiso  ? H
   H62        1.0     0.975795     0.410905     0.064199    Uiso  ? H
   H63        1.0     0.894526     0.346730    -0.010906    Uiso  ? H
   H64        1.0     0.205152     0.737830     0.196147    Uiso  ? H
   H65        1.0     0.238862     0.663710     0.258650    Uiso  ? H
   H66        1.0     0.124782     0.660838     0.266950    Uiso  ? H
   H67        1.0     0.186305     0.582947     0.806958    Uiso  ? H
   H68        1.0     0.092238     0.616280     0.786772    Uiso  ? H
   H69        1.0     0.129297     0.605486     0.881696    Uiso  ? H
   H70        1.0     0.293176     0.655136     0.598277    Uiso  ? H
   H71        1.0     0.324370     0.645860     0.694841    Uiso  ? H
   H72        1.0     0.223584     0.665426     0.670032    Uiso  ? H
   H73        1.0     0.281920     0.052276     0.118030    Uiso  ? H
   H74        1.0     0.267731     0.154737     0.077759    Uiso  ? H
   H75        1.0     0.168561     0.052431     0.117664    Uiso  ? H
   H76        1.0     0.352972     0.977347     0.783217    Uiso  ? H
   H77        1.0     0.296193     0.986159     0.864334    Uiso  ? H
   H78        1.0     0.381338     0.094917     0.816376    Uiso  ? H
   H79        1.0     0.499050     0.213395     0.987100    Uiso  ? H
   H80        1.0     0.436562     0.113891     0.925256    Uiso  ? H
   H81        1.0     0.390545     0.110728     0.015429    Uiso  ? H
   H82        1.0     0.506737     0.047530     0.626129    Uiso  ? H
   H83        1.0     0.460729     0.124973     0.582269    Uiso  ? H
   H84        1.0     0.398146     0.040399     0.657272    Uiso  ? H
   H85        1.0     0.615734     0.329716     0.623249    Uiso  ? H
   H86        1.0     0.694836     0.275170     0.632455    Uiso  ? H
   H87        1.0     0.689287     0.345536     0.706516    Uiso  ? H
   H88        1.0     0.264004     0.321727     0.048464    Uiso  ? H
   H89        1.0     0.225941     0.266811     0.139684    Uiso  ? H
   H90        1.0     0.195596     0.358629     0.101984    Uiso  ? H
   H91        1.0     0.281572     0.345497     0.278250    Uiso  ? H
   H92        1.0     0.319824     0.410056     0.190820    Uiso  ? H
   H93        1.0     0.212438     0.398018     0.229079    Uiso  ? H
   H94        1.0     0.565346     0.584938     0.941279    Uiso  ? H
   H95        1.0     0.507640     0.453742     0.938748    Uiso  ? H
   H96        1.0     0.602786     0.515623     0.005708    Uiso  ? H
   H97        1.0     0.388435     0.774952     0.152391    Uiso  ? H
   H98        1.0     0.332104     0.676705     0.088652    Uiso  ? H
   H99        1.0     0.439200     0.783174     0.062898    Uiso  ? H
   H100       1.0     0.636234     0.610055     0.418391    Uiso  ? H
   H101       1.0     0.660798     0.507203     0.427926    Uiso  ? H
   H102       1.0     0.578282     0.515190     0.488823    Uiso  ? H
   H103       1.0     0.429952     0.546833     0.850938    Uiso  ? H
   H104       1.0     0.378323     0.585686     0.773257    Uiso  ? H
   H105       1.0     0.419911     0.657914     0.854679    Uiso  ? H
   H106       1.0     0.491179     0.947938     0.132931    Uiso  ? H
   H107       1.0     0.590942     0.019908     0.075078    Uiso  ? H
   H108       1.0     0.483628     0.032844     0.062636    Uiso  ? H
   H109       1.0     0.703166     0.292480     0.960708    Uiso  ? H
   H110       1.0     0.626680     0.164058     0.971120    Uiso  ? H
   H111       1.0     0.624377     0.229322     0.885000    Uiso  ? H
   H112       1.0     0.660196     0.103604     0.586212    Uiso  ? H
   H113       1.0     0.727356     0.098650     0.510867    Uiso  ? H
   H114       1.0     0.722911     0.209881     0.525885    Uiso  ? H
   H115       1.0     0.850724     0.030103     0.650281    Uiso  ? H
   H116       1.0     0.747504     0.025781     0.690847    Uiso  ? H
   H117       1.0     0.863113     0.094726     0.733841    Uiso  ? H
   H118       1.0     0.761255     0.468221     0.872592    Uiso  ? H
   H119       1.0     0.822432     0.401909     0.909711    Uiso  ? H
   H120       1.0     0.887420     0.529580     0.891312    Uiso  ? H
   H121       1.0     0.659576     0.347555     0.413362    Uiso  ? H
   H122       1.0     0.616658     0.242775     0.477771    Uiso  ? H
   H123       1.0     0.618812     0.354630     0.503856    Uiso  ? H
   H124       1.0     0.634551     0.586455     0.125251    Uiso  ? H
   H125       1.0     0.747763     0.586723     0.138607    Uiso  ? H
   H126       1.0     0.709972     0.646951     0.202514    Uiso  ? H
   H127       1.0     0.848989     0.668493     0.251956    Uiso  ? H
   H128       1.0     0.918140     0.690147     0.336880    Uiso  ? H
   H129       1.0     0.794376     0.661493     0.339300    Uiso  ? H
   H130       1.0     0.966204     0.731705     0.450800    Uiso  ? H
   H131       1.0     0.868162     0.611514     0.462197    Uiso  ? H
   H132       1.0     0.938326     0.675313     0.541888    Uiso  ? H
   H133       1.0     0.943017     0.863700     0.165512    Uiso  ? H
   H134       1.0     0.028981     0.936840     0.097383    Uiso  ? H
   H135       1.0     0.046345     0.971189     0.193341    Uiso  ? H
   H136       1.0     0.850703     0.815241     0.256790    Uiso  ? H
   H137       1.0     0.937454     0.859468     0.332182    Uiso  ? H
   H138       1.0     0.906478     0.942493     0.277057    Uiso  ? H
   H139       1.0     0.814056     0.018395     0.358212    Uiso  ? H
   H140       1.0     0.849960     0.986539     0.448666    Uiso  ? H
   H141       1.0     0.726538     0.954175     0.427835    Uiso  ? H
   H142       1.0     0.830735     0.639962     0.905060    Uiso  ? H
   H143       1.0     0.777834     0.651364     0.816486    Uiso  ? H
   H144       1.0     0.847937     0.756927     0.870644    Uiso  ? H
   H145       1.0     0.750082     0.942789     0.811548    Uiso  ? H
   H146       1.0     0.834428     0.911289     0.861630    Uiso  ? H
   H147       1.0     0.785306     0.978413     0.906107    Uiso  ? H
   H148       1.0     0.515416     0.744435     0.966788    Uiso  ? H
   H149       1.0     0.518023     0.823691     0.887669    Uiso  ? H
   H150       1.0     0.586258     0.874231     0.971855    Uiso  ? H
   H151       1.0     0.690320     0.806581     0.513333    Uiso  ? H
   H152       1.0     0.675804     0.783822     0.611862    Uiso  ? H
   H153       1.0     0.756517     0.904013     0.575066    Uiso  ? H
   H154       1.0     0.780945     0.787767     0.765621    Uiso  ? H
   H155       1.0     0.793377     0.768083     0.669741    Uiso  ? H
   H156       1.0     0.787743     0.876326     0.694716    Uiso  ? H
   O1         1.0     0.038465     0.171737     0.267482    Uiso  ? O
   O2         1.0     0.074311     0.057347     0.365367    Uiso  ? O
   O3         1.0     0.069298     0.096212     0.850026    Uiso  ? O
   O4         1.0     0.030873     0.128108     0.118221    Uiso  ? O
   O5         1.0     0.110996     0.125415    -0.004648    Uiso  ? O
   O6         1.0     0.033406     0.249554     0.998239    Uiso  ? O
   O7         1.0     0.101026     0.251608     0.513063    Uiso  ? O
   O8         1.0     0.175822     0.252620     0.381169    Uiso  ? O
   O9         1.0     0.154889     0.407181     0.419215    Uiso  ? O
   O10        1.0     0.147662     0.289415     0.836002    Uiso  ? O
   O11        1.0     0.081873     0.469148     0.610478    Uiso  ? O
   O12        1.0     0.164327     0.435311     0.734754    Uiso  ? O
   O13        1.0     0.011734     0.484714     0.177001    Uiso  ? O
   O14        1.0     0.132467     0.612463     0.072438    Uiso  ? O
   O15        1.0     0.096727     0.630164     0.531092    Uiso  ? O
   O16        1.0     0.161498     0.583739     0.412537    Uiso  ? O
   O17        1.0     0.067239     0.991842     0.507814    Uiso  ? O
   O18        1.0     0.074744     0.801798     0.270505    Uiso  ? O
   O19        1.0     0.110383     0.728088     0.399351    Uiso  ? O
   O20        1.0     0.089120     0.890900     0.397817    Uiso  ? O
   O21        1.0     0.253271     0.810033     0.731261    Uiso  ? O
   O22        1.0     0.194152     0.942521     0.679705    Uiso  ? O
   O23        1.0     0.203952     0.169144     0.262611    Uiso  ? O
   O24        1.0     0.231057     0.065516     0.434161    Uiso  ? O
   O25        1.0     0.316931     0.084889     0.271796    Uiso  ? O
   O26        1.0     0.420627     0.007064     0.335546    Uiso  ? O
   O27        1.0     0.247317     0.141147     0.902141    Uiso  ? O
   O28        1.0     0.579255     0.126711     0.772298    Uiso  ? O
   O29        1.0     0.378954     0.264812     0.206780    Uiso  ? O
   O30        1.0     0.289625     0.556937     0.337768    Uiso  ? O
   O31        1.0     0.432740     0.411321     0.104945    Uiso  ? O
   O32        1.0     0.410497     0.183891     0.475053    Uiso  ? O
   O33        1.0     0.486507     0.201740     0.339010    Uiso  ? O
   O34        1.0     0.289372     0.374816     0.495004    Uiso  ? O
   O35        1.0     0.244486     0.445471     0.606814    Uiso  ? O
   O36        1.0     0.428946     0.506715     0.357782    Uiso  ? O
   O37        1.0     0.452280     0.344822     0.386870    Uiso  ? O
   O38        1.0     0.409157     0.292827     0.851640    Uiso  ? O
   O39        1.0     0.485130     0.233819     0.748152    Uiso  ? O
   O40        1.0     0.254296     0.473896     0.868365    Uiso  ? O
   O41        1.0     0.347837     0.480485     0.000164    Uiso  ? O
   O42        1.0     0.162660     0.443255     0.994417    Uiso  ? O
   O43        1.0     0.428807     0.476462     0.606097    Uiso  ? O
   O44        1.0     0.477485     0.406947     0.730750    Uiso  ? O
   O45        1.0     0.419045     0.612731     0.232621    Uiso  ? O
   O46        1.0     0.482520     0.601257     0.094302    Uiso  ? O
   O47        1.0     0.367451     0.572775     0.507523    Uiso  ? O
   O48        1.0     0.269270     0.751814     0.478503    Uiso  ? O
   O49        1.0     0.373246     0.947054     0.480248    Uiso  ? O
   O50        1.0     0.237776     0.852249     0.581725    Uiso  ? O
   O51        1.0     0.462236     0.708857     0.397115    Uiso  ? O
   O52        1.0     0.475216     0.885793     0.403010    Uiso  ? O
   O53        1.0     0.557550     0.603829     0.712421    Uiso  ? O
   O54        1.0     0.566819     0.779347     0.729683    Uiso  ? O
   O55        1.0     0.562359     0.941626     0.774712    Uiso  ? O
   O56        1.0     0.874965     0.043725     0.195592    Uiso  ? O
   O57        1.0     0.480313     0.119353     0.209650    Uiso  ? O
   O58        1.0     0.692842     0.076644     0.859196    Uiso  ? O
   O59        1.0     0.930671     0.227212     0.565352    Uiso  ? O
   O60        1.0     0.643281     0.227425     0.138507    Uiso  ? O
   O61        1.0     0.823793     0.353097     0.182948    Uiso  ? O
   O62        1.0     0.567382     0.371038     0.177128    Uiso  ? O
   O63        1.0     0.550388     0.479522     0.278329    Uiso  ? O
   O64        1.0     0.741195     0.396243     0.061113    Uiso  ? O
   O65        1.0     0.955024     0.454671     0.499946    Uiso  ? O
   O66        1.0     0.609340     0.502653     0.628295    Uiso  ? O
   O67        1.0     0.897834     0.507453     0.267815    Uiso  ? O
   O68        1.0     0.706865     0.447422     0.282346    Uiso  ? O
   O69        1.0     0.821868     0.471701     0.403829    Uiso  ? O
   O70        1.0     0.817568     0.265806     0.821901    Uiso  ? O
   O71        1.0     0.847057     0.271921     0.672520    Uiso  ? O
   O72        1.0     0.957784     0.543963     0.627109    Uiso  ? O
   O73        1.0     0.794231     0.548002     0.665780    Uiso  ? O
   O74        1.0     0.854220     0.426694     0.738787    Uiso  ? O
   O75        1.0     0.899540     0.574108     0.052517    Uiso  ? O
   O76        1.0     0.030086     0.729761     0.130385    Uiso  ? O
   O77        1.0     0.581886     0.750309     0.179343    Uiso  ? O
   O78        1.0     0.691078     0.936865     0.209098    Uiso  ? O
   O79        1.0     0.531011     0.838863     0.280268    Uiso  ? O
   O80        1.0     0.767888     0.932588     0.076618    Uiso  ? O
   O81        1.0     0.749498     0.664250     0.567099    Uiso  ? O
   O82        1.0     0.892023     0.848073     0.539512    Uiso  ? O
   O83        1.0     0.487821     0.759774     0.540345    Uiso  ? O
   O84        1.0     0.565232     0.913187     0.630731    Uiso  ? O
   O85        1.0     0.676281     0.795166     0.313441    Uiso  ? O
   O86        1.0     0.767444     0.758322     0.430893    Uiso  ? O
   O87        1.0     0.946266     0.619211     0.756156    Uiso  ? O
   O88        1.0     0.637799     0.711507     0.843323    Uiso  ? O
   O89        1.0     0.711978     0.773144     0.985590    Uiso  ? O
   O90        1.0     0.002971     0.953146     0.650182    Uiso  ? O
   O91        1.0     0.988486     0.809962     0.750754    Uiso  ? O
