
#======================================================================
# CRYSTAL DATA
#----------------------------------------------------------------------
data_VESTA_phase_1

_chemical_name_common                  '333U-50C-9                            '
_cell_length_a                         16.607790
_cell_length_b                         16.435524
_cell_length_c                         17.383228
_cell_angle_alpha                      87.959267
_cell_angle_beta                       93.534508
_cell_angle_gamma                      125.099854
_cell_volume                           3874.650277
_space_group_name_H-M_alt              'P 1'
_space_group_IT_number                 1

loop_
_space_group_symop_operation_xyz
   'x, y, z'

loop_
   _atom_site_label
   _atom_site_occupancy
   _atom_site_fract_x
   _atom_site_fract_y
   _atom_site_fract_z
   _atom_site_adp_type
   _atom_site_U_iso_or_equiv
   _atom_site_type_symbol
   Si1        1.0     0.122983     0.976854     0.145500    Uiso  ? Si
   Si2        1.0    -0.001642     0.161751     0.207603    Uiso  ? Si
   Si3        1.0     0.100850     0.113457     0.041077    Uiso  ? Si
   Si4        1.0     0.176539     0.969362     0.488873    Uiso  ? Si
   Si5        1.0     0.949705     0.154418     0.592019    Uiso  ? Si
   Si6        1.0     0.197239     0.073043     0.768823    Uiso  ? Si
   Si7        1.0     0.133234     0.189929     0.680730    Uiso  ? Si
   Si8        1.0     0.171216     0.319377     0.109987    Uiso  ? Si
   Si9        1.0     0.028878     0.484175     0.221479    Uiso  ? Si
   Si10       1.0     0.171366     0.469412     0.983586    Uiso  ? Si
   Si11       1.0     0.138491     0.330143     0.422029    Uiso  ? Si
   Si12       1.0     0.139974     0.508449     0.374713    Uiso  ? Si
   Si13       1.0     0.176486     0.351550     0.795080    Uiso  ? Si
   Si14       1.0     0.982746     0.555864     0.886155    Uiso  ? Si
   Si15       1.0     0.192329     0.616587     0.107707    Uiso  ? Si
   Si16       1.0     0.974562     0.824706     0.259247    Uiso  ? Si
   Si17       1.0     0.112579     0.572689     0.525704    Uiso  ? Si
   Si18       1.0     0.178802     0.688611     0.790449    Uiso  ? Si
   Si19       1.0     0.169032     0.794146     0.646574    Uiso  ? Si
   Si20       1.0     0.516774     0.046988     0.104811    Uiso  ? Si
   Si21       1.0     0.336860     0.118403     0.215714    Uiso  ? Si
   Si22       1.0     0.532238     0.208623     0.989429    Uiso  ? Si
   Si23       1.0     0.460789     0.928461     0.433863    Uiso  ? Si
   Si24       1.0     0.376796     0.145557     0.573445    Uiso  ? Si
   Si25       1.0     0.431746     0.086443     0.348586    Uiso  ? Si
   Si26       1.0     0.496606     0.008860     0.828654    Uiso  ? Si
   Si27       1.0     0.401235     0.221552     0.856653    Uiso  ? Si
   Si28       1.0     0.576291     0.207189     0.606769    Uiso  ? Si
   Si29       1.0     0.490314     0.296454     0.121241    Uiso  ? Si
   Si30       1.0     0.370756     0.479716     0.205314    Uiso  ? Si
   Si31       1.0     0.542399     0.584808     0.977230    Uiso  ? Si
   Si32       1.0     0.434357     0.251573     0.426946    Uiso  ? Si
   Si33       1.0     0.310869     0.459543     0.544609    Uiso  ? Si
   Si34       1.0     0.416037     0.409538     0.354469    Uiso  ? Si
   Si35       1.0     0.535110     0.336364     0.713562    Uiso  ? Si
   Si36       1.0     0.353931     0.534107     0.881833    Uiso  ? Si
   Si37       1.0     0.484359     0.449865     0.605813    Uiso  ? Si
   Si38       1.0     0.511660     0.674151     0.110951    Uiso  ? Si
   Si39       1.0     0.315000     0.778952     0.556912    Uiso  ? Si
   Si40       1.0     0.525776     0.898913     0.282477    Uiso  ? Si
   Si41       1.0     0.508317     0.685054     0.773460    Uiso  ? Si
   Si42       1.0     0.313793     0.852381     0.909111    Uiso  ? Si
   Si43       1.0     0.506175     0.806179     0.627940    Uiso  ? Si
   Si44       1.0     0.819686     0.013791     0.090232    Uiso  ? Si
   Si45       1.0     0.716076     0.192789     0.203070    Uiso  ? Si
   Si46       1.0     0.845832     0.184929     0.990432    Uiso  ? Si
   Si47       1.0     0.818938     0.003148     0.445833    Uiso  ? Si
   Si48       1.0     0.845508     0.158145     0.314418    Uiso  ? Si
   Si49       1.0     0.884086     0.052529     0.834076    Uiso  ? Si
   Si50       1.0     0.686225     0.209914     0.898769    Uiso  ? Si
   Si51       1.0     0.849789     0.182967     0.731179    Uiso  ? Si
   Si52       1.0     0.893714     0.329715     0.106782    Uiso  ? Si
   Si53       1.0     0.672399     0.497666     0.208725    Uiso  ? Si
   Si54       1.0     0.852171     0.599022     0.969917    Uiso  ? Si
   Si55       1.0     0.823981     0.284336     0.415364    Uiso  ? Si
   Si56       1.0     0.678268     0.502960     0.531542    Uiso  ? Si
   Si57       1.0     0.837028     0.361314     0.775017    Uiso  ? Si
   Si58       1.0     0.686472     0.591556     0.873937    Uiso  ? Si
   Si59       1.0     0.828334     0.496488     0.647110    Uiso  ? Si
   Si60       1.0     0.838857     0.679725     0.114424    Uiso  ? Si
   Si61       1.0     0.675110     0.861333     0.215833    Uiso  ? Si
   Si62       1.0     0.808850     0.695271     0.436954    Uiso  ? Si
   Si63       1.0     0.618715     0.798208     0.491668    Uiso  ? Si
   Si64       1.0     0.825099     0.857472     0.341948    Uiso  ? Si
   Si65       1.0     0.688833     0.861952     0.875654    Uiso  ? Si
   Si66       1.0     0.913659     0.913601     0.745704    Uiso  ? Si
   C1         1.0     0.084639     0.882879     0.071065    Uiso  ? C
   C2         1.0     0.136042     0.036048     0.427360    Uiso  ? C
   C3         1.0     0.209116     0.900064     0.431210    Uiso  ? C
   C4         1.0    -0.034167     0.546744     0.203194    Uiso  ? C
   C5         1.0     0.158669     0.248095     0.368829    Uiso  ? C
   C6         1.0     0.130604     0.261586     0.876108    Uiso  ? C
   C7         1.0     0.064211     0.410431     0.914409    Uiso  ? C
   C8         1.0     0.155760     0.703753     0.093097    Uiso  ? C
   C9         1.0     0.009267     0.757173     0.324374    Uiso  ? C
   C10        1.0     0.056459     0.497404     0.613226    Uiso  ? C
   C11        1.0     0.050468     0.628828     0.479897    Uiso  ? C
   C12        1.0     0.222990     0.610660     0.779661    Uiso  ? C
   C13        1.0     0.196081     0.898561     0.703192    Uiso  ? C
   C14        1.0     0.391175     0.960497     0.141075    Uiso  ? C
   C15        1.0     0.561592     0.980458     0.061348    Uiso  ? C
   C16        1.0     0.565562     0.012573     0.500378    Uiso  ? C
   C17        1.0     0.206104     0.198245     0.601932    Uiso  ? C
   C18        1.0     0.375193     0.310194     0.886948    Uiso  ? C
   C19        1.0     0.159001     0.085337     0.968520    Uiso  ? C
   C20        1.0     0.443139     0.055595     0.758822    Uiso  ? C
   C21        1.0     0.628952     0.147927     0.661645    Uiso  ? C
   C22        1.0     0.653933     0.275743     0.524954    Uiso  ? C
   C23        1.0     0.337462     0.546952     0.261368    Uiso  ? C
   C24        1.0     0.239996     0.639258     0.353974    Uiso  ? C
   C25        1.0     0.378902     0.289779     0.087828    Uiso  ? C
   C26        1.0     0.560805     0.505408     0.040362    Uiso  ? C
   C27        1.0     0.367492     0.571100     0.483298    Uiso  ? C
   C28        1.0     0.290131     0.494515     0.637806    Uiso  ? C
   C29        1.0     0.418644     0.800684     0.224311    Uiso  ? C
   C30        1.0     0.334274     0.767202     0.965261    Uiso  ? C
   C31        1.0     0.232457     0.884280     0.944744    Uiso  ? C
   C32        1.0     0.510268     0.914236     0.790076    Uiso  ? C
   C33        1.0     0.559853     0.181134     0.325703    Uiso  ? C
   C34        1.0     0.724636     0.454750     0.282511    Uiso  ? C
   C35        1.0     0.646338     0.582169     0.249842    Uiso  ? C
   C36        1.0     0.780448     0.468383     0.000775    Uiso  ? C
   C37        1.0     0.856287     0.410580     0.395696    Uiso  ? C
   C38        1.0     0.853817     0.269274     0.516665    Uiso  ? C
   C39        1.0     0.620167     0.455361     0.881735    Uiso  ? C
   C40        1.0     0.705541     0.633336     0.772608    Uiso  ? C
   C41        1.0     0.903752     0.612934     0.703576    Uiso  ? C
   C42        1.0     0.790136     0.749929     0.074438    Uiso  ? C
   C43        1.0     0.925868     0.786896     0.488748    Uiso  ? C
   C44        1.0     0.560088     0.733160     0.398188    Uiso  ? C
   C45        1.0     0.619892     0.873493     0.948666    Uiso  ? C
   C46        1.0     0.990118     0.927233     0.664655    Uiso  ? C
   C47        1.0     0.654162     0.726556     0.550532    Uiso  ? C
   C48        1.0     0.792614     0.858644     0.692700    Uiso  ? C
   C49        1.0     0.923555     0.840127     0.825704    Uiso  ? C
   H1         1.0     0.042869     0.114010     0.244725    Uiso  ? H
   H2         1.0     0.002627     0.084396     0.010741    Uiso  ? H
   H3         1.0     0.102161     0.904212     0.545639    Uiso  ? H
   H4         1.0     0.225434     0.069289     0.691528    Uiso  ? H
   H5         1.0     0.016343     0.251756     0.556557    Uiso  ? H
   H6         1.0     0.034450     0.277592     0.441330    Uiso  ? H
   H7         1.0     0.120633     0.394853     0.775577    Uiso  ? H
   H8         1.0    -0.000105     0.518965     0.959074    Uiso  ? H
   H9         1.0     0.298296     0.666511     0.127398    Uiso  ? H
   H10        1.0     0.080265     0.756417     0.594975    Uiso  ? H
   H11        1.0     0.125205     0.976936     0.805022    Uiso  ? H
   H12        1.0     0.313091     0.177510     0.258356    Uiso  ? H
   H13        1.0     0.369329     0.169623     0.651866    Uiso  ? H
   H14        1.0     0.344851     0.422688     0.387926    Uiso  ? H
   H15        1.0     0.441828     0.701177     0.094191    Uiso  ? H
   H16        1.0     0.557037     0.000429     0.262637    Uiso  ? H
   H17        1.0     0.525138     0.542878     0.648584    Uiso  ? H
   H18        1.0     0.518842     0.604285     0.758384    Uiso  ? H
   H19        1.0     0.586177     0.904829     0.657857    Uiso  ? H
   H20        1.0     0.829944     0.949056     0.041583    Uiso  ? H
   H21        1.0     0.731614     0.270367     0.254508    Uiso  ? H
   H22        1.0     0.903498     0.189753     0.928237    Uiso  ? H
   H23        1.0     0.923870     0.070901     0.914293    Uiso  ? H
   H24        1.0     0.743293     0.111376     0.738393    Uiso  ? H
   H25        1.0     0.517038     0.479861     0.389115    Uiso  ? H
   H26        1.0     0.905574     0.413785     0.062707    Uiso  ? H
   H27        1.0     0.718026     0.205453     0.397045    Uiso  ? H
   H28        1.0     0.540861     0.321718     0.416542    Uiso  ? H
   H29        1.0     0.677137     0.446992     0.466858    Uiso  ? H
   H30        1.0     0.626490     0.430261     0.738325    Uiso  ? H
   H31        1.0     0.879203     0.494681     0.580528    Uiso  ? H
   H32        1.0     0.812710     0.634765     0.377971    Uiso  ? H
   H33        1.0     0.751296     0.829616     0.907149    Uiso  ? H
   H34        1.0     0.010897     0.854500     0.045853    Uiso  ? H
   H35        1.0     0.083172     0.818958     0.093584    Uiso  ? H
   H36        1.0     0.135528     0.915399     0.024364    Uiso  ? H
   H37        1.0     0.110310     0.070963     0.461571    Uiso  ? H
   H38        1.0     0.076379     0.986522     0.385205    Uiso  ? H
   H39        1.0     0.197760     0.094278     0.394018    Uiso  ? H
   H40        1.0     0.215159     0.920271     0.369943    Uiso  ? H
   H41        1.0     0.157153     0.819378     0.435785    Uiso  ? H
   H42        1.0     0.280540     0.918610     0.453969    Uiso  ? H
   H43        1.0     0.892468     0.503176     0.226780    Uiso  ? H
   H44        1.0     0.956010     0.557601     0.141606    Uiso  ? H
   H45        1.0     0.007922     0.620141     0.230859    Uiso  ? H
   H46        1.0     0.179396     0.274236     0.309575    Uiso  ? H
   H47        1.0     0.090992     0.172360     0.365789    Uiso  ? H
   H48        1.0     0.216654     0.243713     0.397448    Uiso  ? H
   H49        1.0     0.131966     0.198877     0.859395    Uiso  ? H
   H50        1.0     0.054572     0.231619     0.888665    Uiso  ? H
   H51        1.0     0.176671     0.294834     0.929106    Uiso  ? H
   H52        1.0     0.043491     0.340137     0.890482    Uiso  ? H
   H53        1.0     0.076113     0.460431     0.866289    Uiso  ? H
   H54        1.0     0.001725     0.395538     0.945551    Uiso  ? H
   H55        1.0     0.080314     0.666336     0.067764    Uiso  ? H
   H56        1.0     0.204658     0.765294     0.054964    Uiso  ? H
   H57        1.0     0.159118     0.735790     0.148668    Uiso  ? H
   H58        1.0     0.073747     0.764977     0.301667    Uiso  ? H
   H59        1.0     0.948852     0.677887     0.325304    Uiso  ? H
   H60        1.0     0.028962     0.784470     0.383540    Uiso  ? H
   H61        1.0     0.097464     0.467127     0.635548    Uiso  ? H
   H62        1.0    -0.019372     0.434376     0.598758    Uiso  ? H
   H63        1.0     0.055430     0.541160     0.658657    Uiso  ? H
   H64        1.0     0.971057     0.581606     0.488694    Uiso  ? H
   H65        1.0     0.059974     0.636581     0.417445    Uiso  ? H
   H66        1.0     0.079466     0.702105     0.503459    Uiso  ? H
   H67        1.0     0.164943     0.537950     0.755186    Uiso  ? H
   H68        1.0     0.249173     0.599781     0.835577    Uiso  ? H
   H69        1.0     0.284534     0.647230     0.741125    Uiso  ? H
   H70        1.0     0.229229     0.964601     0.666758    Uiso  ? H
   H71        1.0     0.245448     0.912189     0.753204    Uiso  ? H
   H72        1.0     0.126308     0.880828     0.723257    Uiso  ? H
   H73        1.0     0.357193     0.888047     0.113195    Uiso  ? H
   H74        1.0     0.345560     0.987253     0.124062    Uiso  ? H
   H75        1.0     0.387889     0.948878     0.203350    Uiso  ? H
   H76        1.0     0.510360     0.933378     0.014152    Uiso  ? H
   H77        1.0     0.570447     0.934100     0.103030    Uiso  ? H
   H78        1.0     0.633780     0.033229     0.037714    Uiso  ? H
   H79        1.0     0.621048     0.078758     0.468380    Uiso  ? H
   H80        1.0     0.601231     0.978172     0.525646    Uiso  ? H
   H81        1.0     0.540746     0.035701     0.546350    Uiso  ? H
   H82        1.0     0.197002     0.234430     0.551416    Uiso  ? H
   H83        1.0     0.181299     0.123037     0.585675    Uiso  ? H
   H84        1.0     0.284813     0.240831     0.618817    Uiso  ? H
   H85        1.0     0.434492     0.372690     0.921186    Uiso  ? H
   H86        1.0     0.309754     0.272267     0.921229    Uiso  ? H
   H87        1.0     0.359809     0.341086     0.835608    Uiso  ? H
   H88        1.0     0.181822     0.136451     0.919695    Uiso  ? H
   H89        1.0     0.103515     0.010201     0.945899    Uiso  ? H
   H90        1.0     0.223060     0.086953     0.991327    Uiso  ? H
   H91        1.0     0.379626     0.047112     0.783588    Uiso  ? H
   H92        1.0     0.417928     0.014279     0.704313    Uiso  ? H
   H93        1.0     0.495111     0.134655     0.746493    Uiso  ? H
   H94        1.0     0.691462     0.161466     0.631047    Uiso  ? H
   H95        1.0     0.576886     0.067280     0.667885    Uiso  ? H
   H96        1.0     0.655459     0.179966     0.719438    Uiso  ? H
   H97        1.0     0.623172     0.306159     0.486183    Uiso  ? H
   H98        1.0     0.659777     0.223820     0.492045    Uiso  ? H
   H99        1.0     0.728555     0.336880     0.544300    Uiso  ? H
   H100       1.0     0.283178     0.498629     0.303437    Uiso  ? H
   H101       1.0     0.304585     0.575670     0.222603    Uiso  ? H
   H102       1.0     0.403355     0.609523     0.291757    Uiso  ? H
   H103       1.0     0.251529     0.647864     0.292119    Uiso  ? H
   H104       1.0     0.310399     0.667111     0.385222    Uiso  ? H
   H105       1.0     0.217102     0.687265     0.369329    Uiso  ? H
   H106       1.0     0.332435     0.221380     0.053615    Uiso  ? H
   H107       1.0     0.386896     0.350801     0.053736    Uiso  ? H
   H108       1.0     0.337979     0.280556     0.138476    Uiso  ? H
   H109       1.0     0.532701     0.433860     0.014280    Uiso  ? H
   H110       1.0     0.525786     0.492646     0.094674    Uiso  ? H
   H111       1.0     0.639932     0.542787     0.052823    Uiso  ? H
   H112       1.0     0.371724     0.559399     0.422698    Uiso  ? H
   H113       1.0     0.441689     0.626013     0.507695    Uiso  ? H
   H114       1.0     0.325617     0.603388     0.487602    Uiso  ? H
   H115       1.0     0.211538     0.448845     0.648848    Uiso  ? H
   H116       1.0     0.315623     0.572626     0.634997    Uiso  ? H
   H117       1.0     0.329355     0.485942     0.686819    Uiso  ? H
   H118       1.0     0.431764     0.812434     0.162646    Uiso  ? H
   H119       1.0     0.352095     0.796893     0.234432    Uiso  ? H
   H120       1.0     0.405102     0.728850     0.240002    Uiso  ? H
   H121       1.0     0.388640     0.763074     0.935912    Uiso  ? H
   H122       1.0     0.266837     0.691679     0.966313    Uiso  ? H
   H123       1.0     0.362746     0.791028     0.024764    Uiso  ? H
   H124       1.0     0.155637     0.819629     0.947588    Uiso  ? H
   H125       1.0     0.234625     0.938841     0.904650    Uiso  ? H
   H126       1.0     0.259464     0.919785     0.001607    Uiso  ? H
   H127       1.0     0.451961     0.870818     0.745306    Uiso  ? H
   H128       1.0     0.501803     0.862728     0.835941    Uiso  ? H
   H129       1.0     0.582381     0.947657     0.765999    Uiso  ? H
   H130       1.0     0.564318     0.224890     0.275107    Uiso  ? H
   H131       1.0     0.594901     0.143892     0.313353    Uiso  ? H
   H132       1.0     0.601557     0.231450     0.374332    Uiso  ? H
   H133       1.0     0.734517     0.400761     0.257577    Uiso  ? H
   H134       1.0     0.674171     0.417007     0.329631    Uiso  ? H
   H135       1.0     0.795485     0.516550     0.307656    Uiso  ? H
   H136       1.0     0.610404     0.555283     0.304756    Uiso  ? H
   H137       1.0     0.601066     0.596052     0.211127    Uiso  ? H
   H138       1.0     0.717391     0.653734     0.261278    Uiso  ? H
   H139       1.0     0.757825     0.416521     0.953217    Uiso  ? H
   H140       1.0     0.714847     0.445922     0.031128    Uiso  ? H
   H141       1.0     0.827624     0.459310     0.041844    Uiso  ? H
   H142       1.0     0.810740     0.425928     0.426603    Uiso  ? H
   H143       1.0     0.848110     0.421164     0.334123    Uiso  ? H
   H144       1.0     0.933764     0.464005     0.413479    Uiso  ? H
   H145       1.0     0.833278     0.302385     0.558048    Uiso  ? H
   H146       1.0     0.933240     0.304271     0.524962    Uiso  ? H
   H147       1.0     0.814625     0.190036     0.530620    Uiso  ? H
   H148       1.0     0.608278     0.428030     0.940978    Uiso  ? H
   H149       1.0     0.661972     0.431849     0.855341    Uiso  ? H
   H150       1.0     0.549068     0.419780     0.849997    Uiso  ? H
   H151       1.0     0.635866     0.588460     0.738250    Uiso  ? H
   H152       1.0     0.759708     0.626256     0.746695    Uiso  ? H
   H153       1.0     0.730174     0.710836     0.768332    Uiso  ? H
   H154       1.0     0.978811     0.633276     0.715360    Uiso  ? H
   H155       1.0     0.872277     0.606455     0.759058    Uiso  ? H
   H156       1.0     0.908473     0.673755     0.670532    Uiso  ? H
   H157       1.0     0.743788     0.751871     0.115676    Uiso  ? H
   H158       1.0     0.748972     0.722928     0.018986    Uiso  ? H
   H159       1.0     0.853577     0.827080     0.065708    Uiso  ? H
   H160       1.0     0.964290     0.753959     0.511304    Uiso  ? H
   H161       1.0     0.909798     0.814333     0.538104    Uiso  ? H
   H162       1.0     0.975643     0.851609     0.453467    Uiso  ? H
   H163       1.0     0.538588     0.656476     0.403443    Uiso  ? H
   H164       1.0     0.612125     0.768714     0.352569    Uiso  ? H
   H165       1.0     0.494926     0.732237     0.381640    Uiso  ? H
   H166       1.0     0.542758     0.808909     0.946520    Uiso  ? H
   H167       1.0     0.622716     0.941170     0.938545    Uiso  ? H
   H168       1.0     0.650267     0.876960     0.007110    Uiso  ? H
   H169       1.0     0.971563     0.954340     0.612686    Uiso  ? H
   H170       1.0     0.966817     0.850883     0.653066    Uiso  ? H
   H171       1.0     0.070463     0.971791     0.671844    Uiso  ? H
   H172       1.0     0.732337     0.756904     0.549844    Uiso  ? H
   H173       1.0     0.613188     0.651163     0.526821    Uiso  ? H
   H174       1.0     0.634669     0.720881     0.610425    Uiso  ? H
   H175       1.0     0.774770     0.793511     0.661011    Uiso  ? H
   H176       1.0     0.801552     0.913934     0.649781    Uiso  ? H
   H177       1.0     0.729948     0.837113     0.726685    Uiso  ? H
   H178       1.0     0.917567     0.774179     0.805655    Uiso  ? H
   H179       1.0     0.867754     0.815672     0.868294    Uiso  ? H
   H180       1.0    -0.003991     0.887566     0.856191    Uiso  ? H
   O1         1.0     0.087409     0.049269     0.120141    Uiso  ? O
   O2         1.0     0.016979     0.129636     0.647004    Uiso  ? O
   O3         1.0     0.147167     0.134898     0.756772    Uiso  ? O
   O4         1.0     0.083663     0.270176     0.171312    Uiso  ? O
   O5         1.0     0.166871     0.232050     0.064392    Uiso  ? O
   O6         1.0     0.163915     0.389593     0.046354    Uiso  ? O
   O7         1.0     0.047653     0.478077     0.313568    Uiso  ? O
   O8         1.0     0.166905     0.427409     0.367770    Uiso  ? O
   O9         1.0     0.170623     0.298811     0.714402    Uiso  ? O
   O10        1.0     0.135136     0.543029     0.180843    Uiso  ? O
   O11        1.0     0.165913     0.551064     0.029501    Uiso  ? O
   O12        1.0     0.074129     0.926441     0.228172    Uiso  ? O
   O13        1.0     0.103092     0.494737     0.462508    Uiso  ? O
   O14        1.0     0.086348     0.638767     0.847696    Uiso  ? O
   O15        1.0     0.140495     0.700615     0.704368    Uiso  ? O
   O16        1.0     0.244175     0.045168     0.155682    Uiso  ? O
   O17        1.0     0.502100     0.109718     0.036336    Uiso  ? O
   O18        1.0     0.271981     0.047671     0.546443    Uiso  ? O
   O19        1.0     0.353246     0.047415     0.273517    Uiso  ? O
   O20        1.0     0.421825     0.989354     0.386931    Uiso  ? O
   O21        1.0     0.295277     0.122376     0.826948    Uiso  ? O
   O22        1.0     0.444814     0.184874     0.925968    Uiso  ? O
   O23        1.0     0.461999     0.123819     0.572487    Uiso  ? O
   O24        1.0     0.441510     0.193127     0.173145    Uiso  ? O
   O25        1.0     0.549202     0.291705     0.050099    Uiso  ? O
   O26        1.0     0.277385     0.387527     0.156383    Uiso  ? O
   O27        1.0     0.407174     0.241866     0.517077    Uiso  ? O
   O28        1.0     0.394915     0.138652     0.402827    Uiso  ? O
   O29        1.0     0.206237     0.367652     0.503441    Uiso  ? O
   O30        1.0     0.415995     0.430029     0.261068    Uiso  ? O
   O31        1.0     0.382507     0.295193     0.373241    Uiso  ? O
   O32        1.0     0.476739     0.264768     0.786086    Uiso  ? O
   O33        1.0     0.567742     0.282200     0.660317    Uiso  ? O
   O34        1.0     0.292613     0.443877     0.819155    Uiso  ? O
   O35        1.0     0.431657     0.523101     0.934776    Uiso  ? O
   O36        1.0     0.277564     0.529365     0.940439    Uiso  ? O
   O37        1.0     0.385279     0.421616     0.556301    Uiso  ? O
   O38        1.0     0.462363     0.362481     0.668008    Uiso  ? O
   O39        1.0     0.454925     0.560922     0.146195    Uiso  ? O
   O40        1.0     0.557949     0.675114     0.029906    Uiso  ? O
   O41        1.0     0.232069     0.660855     0.541626    Uiso  ? O
   O42        1.0     0.364727     0.835625     0.476949    Uiso  ? O
   O43        1.0     0.263260     0.826394     0.594920    Uiso  ? O
   O44        1.0     0.496099     0.881563     0.373287    Uiso  ? O
   O45        1.0     0.418988     0.640712     0.834609    Uiso  ? O
   O46        1.0     0.266845     0.799136     0.823204    Uiso  ? O
   O47        1.0     0.421953     0.957827     0.900202    Uiso  ? O
   O48        1.0     0.401196     0.794199     0.617992    Uiso  ? O
   O49        1.0     0.485672     0.718704     0.689515    Uiso  ? O
   O50        1.0     0.923028     0.090425     0.137447    Uiso  ? O
   O51        1.0     0.601512     0.123435     0.171499    Uiso  ? O
   O52        1.0     0.791012     0.077100     0.034303    Uiso  ? O
   O53        1.0     0.888216     0.070217     0.521939    Uiso  ? O
   O54        1.0     0.936972     0.173360     0.270640    Uiso  ? O
   O55        1.0     0.755126     0.131466     0.250851    Uiso  ? O
   O56        1.0     0.807183     0.070546     0.380378    Uiso  ? O
   O57        1.0     0.606043     0.100085     0.864619    Uiso  ? O
   O58        1.0     0.765216     0.205323     0.955854    Uiso  ? O
   O59        1.0     0.633606     0.250654     0.945174    Uiso  ? O
   O60        1.0     0.877546     0.163204     0.647657    Uiso  ? O
   O61        1.0     0.907159     0.157853     0.797615    Uiso  ? O
   O62        1.0     0.779199     0.248219     0.126709    Uiso  ? O
   O63        1.0     0.923437     0.272641     0.052335    Uiso  ? O
   O64        1.0     0.961817     0.370370     0.186422    Uiso  ? O
   O65        1.0     0.573375     0.393787     0.172256    Uiso  ? O
   O66        1.0     0.932810     0.613574     0.908992    Uiso  ? O
   O67        1.0     0.885050     0.261690     0.357316    Uiso  ? O
   O68        1.0     0.566460     0.465556     0.547731    Uiso  ? O
   O69        1.0     0.744031     0.288603     0.828812    Uiso  ? O
   O70        1.0     0.878195     0.297180     0.744968    Uiso  ? O
   O71        1.0     0.917932     0.461362     0.825380    Uiso  ? O
   O72        1.0     0.791887     0.639085     0.924170    Uiso  ? O
   O73        1.0     0.624332     0.631174     0.910989    Uiso  ? O
   O74        1.0     0.730439     0.489516     0.609443    Uiso  ? O
   O75        1.0     0.799932     0.398196     0.700553    Uiso  ? O
   O76        1.0     0.755575     0.565560     0.143191    Uiso  ? O
   O77        1.0     0.900898     0.667964     0.049251    Uiso  ? O
   O78        1.0     0.911368     0.747229     0.187953    Uiso  ? O
   O79        1.0     0.598732     0.753954     0.172811    Uiso  ? O
   O80        1.0     0.732378     0.945715     0.149885    Uiso  ? O
   O81        1.0     0.618462     0.891005     0.268388    Uiso  ? O
   O82        1.0     0.737539     0.618512     0.503739    Uiso  ? O
   O83        1.0     0.711679     0.916024     0.477288    Uiso  ? O
   O84        1.0     0.536629     0.797018     0.542799    Uiso  ? O
   O85        1.0     0.914249     0.861654     0.302184    Uiso  ? O
   O86        1.0     0.753368     0.854799     0.272236    Uiso  ? O
   O87        1.0     0.764784     0.754558     0.393087    Uiso  ? O
   O88        1.0     0.864885     0.951527     0.400968    Uiso  ? O
   O89        1.0     0.609889     0.782452     0.809347    Uiso  ? O
   O90        1.0     0.763752     0.970400     0.832574    Uiso  ? O
   O91        1.0     0.939686     0.016657     0.787046    Uiso  ? O
