
#======================================================================
# CRYSTAL DATA
#----------------------------------------------------------------------
data_VESTA_phase_1

_chemical_name_common                  '333U-50C-33                           '
_cell_length_a                         15.070942
_cell_length_b                         15.858737
_cell_length_c                         18.324352
_cell_angle_alpha                      90.752609
_cell_angle_beta                       89.229927
_cell_angle_gamma                      119.179047
_cell_volume                           3823.404572
_space_group_name_H-M_alt              'P 1'
_space_group_IT_number                 1

loop_
_space_group_symop_operation_xyz
   'x, y, z'

loop_
   _atom_site_label
   _atom_site_occupancy
   _atom_site_fract_x
   _atom_site_fract_y
   _atom_site_fract_z
   _atom_site_adp_type
   _atom_site_U_iso_or_equiv
   _atom_site_type_symbol
   Si1        1.0     0.963394     0.095687     0.275679    Uiso  ? Si
   Si2        1.0     0.188722     0.232693     0.021930    Uiso  ? Si
   Si3        1.0     0.204731     0.036740     0.479371    Uiso  ? Si
   Si4        1.0    -0.009323     0.099201     0.595473    Uiso  ? Si
   Si5        1.0     0.166835     0.172544     0.367069    Uiso  ? Si
   Si6        1.0     0.984779     0.209232     0.955343    Uiso  ? Si
   Si7        1.0     0.146677     0.207828     0.716063    Uiso  ? Si
   Si8        1.0     0.119769     0.480303     0.970949    Uiso  ? Si
   Si9        1.0     0.135744     0.277974     0.499063    Uiso  ? Si
   Si10       1.0     0.029884     0.553530     0.541653    Uiso  ? Si
   Si11       1.0     0.194251     0.550271     0.314196    Uiso  ? Si
   Si12       1.0     0.127135     0.381477     0.750323    Uiso  ? Si
   Si13       1.0     0.932058     0.424334     0.875419    Uiso  ? Si
   Si14       1.0     0.193194     0.545059     0.643631    Uiso  ? Si
   Si15       1.0     0.984641     0.759687     0.174203    Uiso  ? Si
   Si16       1.0     0.212079     0.862419     0.926868    Uiso  ? Si
   Si17       1.0     0.169760     0.691054     0.417034    Uiso  ? Si
   Si18       1.0     0.050388     0.868446     0.570482    Uiso  ? Si
   Si19       1.0     0.205843     0.894790     0.365155    Uiso  ? Si
   Si20       1.0     0.263993     0.722538     0.736341    Uiso  ? Si
   Si21       1.0     0.038753     0.818034     0.809234    Uiso  ? Si
   Si22       1.0     0.230501     0.882993     0.673823    Uiso  ? Si
   Si23       1.0     0.492549     0.054758     0.146348    Uiso  ? Si
   Si24       1.0     0.264067     0.207356     0.216435    Uiso  ? Si
   Si25       1.0     0.454766     0.163914     0.031014    Uiso  ? Si
   Si26       1.0     0.533155     0.003139     0.434502    Uiso  ? Si
   Si27       1.0     0.377819     0.212956     0.563232    Uiso  ? Si
   Si28       1.0     0.546396     0.198913     0.372146    Uiso  ? Si
   Si29       1.0     0.322711     0.188267     0.917713    Uiso  ? Si
   Si30       1.0     0.539984     0.231976     0.676942    Uiso  ? Si
   Si31       1.0     0.484427     0.330847     0.140337    Uiso  ? Si
   Si32       1.0     0.383673     0.586729     0.230255    Uiso  ? Si
   Si33       1.0     0.541066     0.355119     0.466968    Uiso  ? Si
   Si34       1.0     0.312403     0.442417     0.581649    Uiso  ? Si
   Si35       1.0     0.518300     0.499411     0.355252    Uiso  ? Si
   Si36       1.0     0.480356     0.319780     0.801824    Uiso  ? Si
   Si37       1.0     0.293581     0.478631     0.875728    Uiso  ? Si
   Si38       1.0     0.467839     0.467466     0.706208    Uiso  ? Si
   Si39       1.0     0.354200     0.595816     0.071738    Uiso  ? Si
   Si40       1.0     0.352007     0.872908     0.252068    Uiso  ? Si
   Si41       1.0     0.445609     0.778482     0.984347    Uiso  ? Si
   Si42       1.0     0.531131     0.694864     0.418520    Uiso  ? Si
   Si43       1.0     0.344750     0.825202     0.504123    Uiso  ? Si
   Si44       1.0     0.537946     0.865474     0.317432    Uiso  ? Si
   Si45       1.0     0.502179     0.639746     0.813912    Uiso  ? Si
   Si46       1.0     0.400763     0.861388     0.845259    Uiso  ? Si
   Si47       1.0     0.913767     0.994743     0.121913    Uiso  ? Si
   Si48       1.0     0.659658     0.214236     0.231225    Uiso  ? Si
   Si49       1.0     0.776920     0.188900     0.995569    Uiso  ? Si
   Si50       1.0     0.826718     0.105207     0.693542    Uiso  ? Si
   Si51       1.0     0.781887     0.338820     0.105881    Uiso  ? Si
   Si52       1.0     0.656139     0.469234     0.244835    Uiso  ? Si
   Si53       1.0     0.801138     0.464471     0.982504    Uiso  ? Si
   Si54       1.0     0.908670     0.327407     0.535555    Uiso  ? Si
   Si55       1.0     0.640949     0.507062     0.585939    Uiso  ? Si
   Si56       1.0     0.822262     0.471723     0.344527    Uiso  ? Si
   Si57       1.0     0.793855     0.256213     0.772529    Uiso  ? Si
   Si58       1.0     0.666455     0.494147     0.862881    Uiso  ? Si
   Si59       1.0     0.856916     0.546811     0.645055    Uiso  ? Si
   Si60       1.0     0.841336     0.645109     0.053124    Uiso  ? Si
   Si61       1.0     0.845724     0.831622     0.011496    Uiso  ? Si
   Si62       1.0     0.685074     0.802292     0.551654    Uiso  ? Si
   Si63       1.0     0.825777     0.785538     0.279031    Uiso  ? Si
   Si64       1.0     0.837145     0.668376     0.765359    Uiso  ? Si
   Si65       1.0     0.641087     0.776023     0.930526    Uiso  ? Si
   Si66       1.0     0.842595     0.813205     0.649922    Uiso  ? Si
   C1         1.0     0.001011     0.215601     0.234050    Uiso  ? C
   C2         1.0     0.857283     0.057277     0.342242    Uiso  ? C
   C3         1.0     0.109980     0.184072     0.813117    Uiso  ? C
   C4         1.0     0.120258     0.586333     0.015077    Uiso  ? C
   C5         1.0     0.113602     0.490732     0.233844    Uiso  ? C
   C6         1.0     0.173774     0.466803     0.389758    Uiso  ? C
   C7         1.0     0.074652     0.854517     0.110276    Uiso  ? C
   C8         1.0     0.982144     0.772318     0.503383    Uiso  ? C
   C9         1.0     0.105017     0.905612     0.318340    Uiso  ? C
   C10        1.0     0.931984     0.515059     0.815179    Uiso  ? C
   C11        1.0     0.182735     0.660097     0.815976    Uiso  ? C
   C12        1.0     0.547641     0.176295     0.959053    Uiso  ? C
   C13        1.0     0.612552     0.037372     0.516280    Uiso  ? C
   C14        1.0     0.221777     0.080264     0.190981    Uiso  ? C
   C15        1.0     0.425810     0.174465     0.331850    Uiso  ? C
   C16        1.0     0.270072     0.089802     0.849731    Uiso  ? C
   C17        1.0     0.327544     0.454905     0.210744    Uiso  ? C
   C18        1.0     0.441742     0.552332     0.038521    Uiso  ? C
   C19        1.0     0.257702     0.774609     0.194387    Uiso  ? C
   C20        1.0     0.468433     0.884645     0.038726    Uiso  ? C
   C21        1.0     0.409203     0.498503     0.511215    Uiso  ? C
   C22        1.0     0.425804     0.803344     0.566534    Uiso  ? C
   C23        1.0     0.361171     0.978568     0.649595    Uiso  ? C
   C24        1.0     0.610979     0.890171     0.231187    Uiso  ? C
   C25        1.0     0.516762     0.980048     0.840279    Uiso  ? C
   C26        1.0     0.822321     0.034915     0.095987    Uiso  ? C
   C27        1.0     0.728382     0.145117     0.234953    Uiso  ? C
   C28        1.0     0.688254     0.029897     0.679223    Uiso  ? C
   C29        1.0     0.862576     0.049685     0.767479    Uiso  ? C
   C30        1.0     0.919948     0.404624     0.120127    Uiso  ? C
   C31        1.0     0.920229     0.572836     0.289840    Uiso  ? C
   C32        1.0     0.773403     0.289111     0.557510    Uiso  ? C
   C33        1.0     0.859666     0.375257     0.346512    Uiso  ? C
   C34        1.0     0.813738     0.512167     0.438896    Uiso  ? C
   C35        1.0     0.701373     0.585960     0.063204    Uiso  ? C
   C36        1.0     0.041167     0.932558     0.784549    Uiso  ? C
   C37        1.0     0.928524     0.923602     0.945141    Uiso  ? C
   C38        1.0     0.752194     0.923461     0.509060    Uiso  ? C
   C39        1.0     0.609195     0.778397     0.637831    Uiso  ? C
   C40        1.0     0.706793     0.741042     0.226068    Uiso  ? C
   C41        1.0     0.803055     0.704925     0.358387    Uiso  ? C
   C42        1.0     0.697750     0.887196     0.876045    Uiso  ? C
   H1         1.0     0.182781     0.157090     0.070974    Uiso  ? H
   H2         1.0     0.247099     0.331855     0.052643    Uiso  ? H
   H3         1.0     0.949987    -0.000260     0.569633    Uiso  ? H
   H4         1.0     0.033095     0.287012     0.901470    Uiso  ? H
   H5         1.0     0.084229     0.396258     0.020525    Uiso  ? H
   H6         1.0     0.088311     0.339079     0.494082    Uiso  ? H
   H7         1.0     0.929171     0.112330     0.920274    Uiso  ? H
   H8         1.0     0.033606     0.329413     0.792814    Uiso  ? H
   H9         1.0     0.192484     0.783856     0.978459    Uiso  ? H
   H10        1.0     0.241876     0.954037     0.966847    Uiso  ? H
   H11        1.0     0.045003     0.730598     0.219936    Uiso  ? H
   H12        1.0     0.068962     0.771407     0.751250    Uiso  ? H
   H13        1.0     0.210848     0.915897     0.745570    Uiso  ? H
   H14        1.0     0.203158     0.245462     0.180871    Uiso  ? H
   H15        1.0     0.331377     0.250841     0.615372    Uiso  ? H
   H16        1.0     0.249498     0.221299     0.702385    Uiso  ? H
   H17        1.0     0.630062     0.328773     0.669250    Uiso  ? H
   H18        1.0     0.568738     0.155659     0.686951    Uiso  ? H
   H19        1.0     0.478683     0.407071     0.098907    Uiso  ? H
   H20        1.0     0.488195     0.630467     0.257960    Uiso  ? H
   H21        1.0     0.408248     0.443934     0.342325    Uiso  ? H
   H22        1.0     0.323731     0.409523     0.903199    Uiso  ? H
   H23        1.0     0.247135     0.517737     0.079039    Uiso  ? H
   H24        1.0     0.574677     0.042880     0.112123    Uiso  ? H
   H25        1.0     0.426808     0.658610     0.445798    Uiso  ? H
   H26        1.0     0.267845     0.844738     0.539005    Uiso  ? H
   H27        1.0     0.504198     0.720731     0.774307    Uiso  ? H
   H28        1.0     0.013395     0.044783     0.083437    Uiso  ? H
   H29        1.0     0.755649     0.221440     0.926588    Uiso  ? H
   H30        1.0     0.714138     0.081774    -0.000983    Uiso  ? H
   H31        1.0     0.962037     0.315816     0.598880    Uiso  ? H
   H32        1.0     0.913380     0.269568     0.472256    Uiso  ? H
   H33        1.0     0.636142     0.582123     0.542958    Uiso  ? H
   H34        1.0     0.703772     0.174336     0.807335    Uiso  ? H
   H35        1.0     0.600907     0.524456     0.902195    Uiso  ? H
   H36        1.0     0.763998     0.319679     0.733411    Uiso  ? H
   H37        1.0     0.827919     0.450560     0.674037    Uiso  ? H
   H38        1.0     0.733575     0.547080     0.199924    Uiso  ? H
   H39        1.0     0.859660     0.883489     0.309961    Uiso  ? H
   H40        1.0     0.831638     0.893964     0.680907    Uiso  ? H
   H41        1.0     0.070800     0.241297     0.201160    Uiso  ? H
   H42        1.0     0.015432     0.269352     0.277424    Uiso  ? H
   H43        1.0     0.941688     0.213385     0.198708    Uiso  ? H
   H44        1.0     0.783845     0.036783     0.317362    Uiso  ? H
   H45        1.0     0.874392     0.116906     0.380959    Uiso  ? H
   H46        1.0     0.849697    -0.004401     0.373459    Uiso  ? H
   H47        1.0     0.098969     0.114617     0.832312    Uiso  ? H
   H48        1.0     0.039145     0.186078     0.822096    Uiso  ? H
   H49        1.0     0.169238     0.241123     0.846417    Uiso  ? H
   H50        1.0     0.172849     0.652296     0.986070    Uiso  ? H
   H51        1.0     0.144397     0.595655     0.072177    Uiso  ? H
   H52        1.0     0.044017     0.579186     0.013412    Uiso  ? H
   H53        1.0     0.125110     0.432433     0.211022    Uiso  ? H
   H54        1.0     0.127496     0.542830     0.190330    Uiso  ? H
   H55        1.0     0.033615     0.459415     0.250469    Uiso  ? H
   H56        1.0     0.198317     0.414015     0.374869    Uiso  ? H
   H57        1.0     0.092766     0.426724     0.404467    Uiso  ? H
   H58        1.0     0.215575     0.506662     0.438655    Uiso  ? H
   H59        1.0     0.088791     0.817752     0.063905    Uiso  ? H
   H60        1.0     0.147839     0.900670     0.136723    Uiso  ? H
   H61        1.0     0.046856     0.901433     0.088783    Uiso  ? H
   H62        1.0     0.029130     0.769650     0.458513    Uiso  ? H
   H63        1.0     0.923616     0.787122     0.481539    Uiso  ? H
   H64        1.0     0.943052     0.701334     0.529044    Uiso  ? H
   H65        1.0     0.105379     0.890384     0.260092    Uiso  ? H
   H66        1.0     0.112273    -0.022562     0.323928    Uiso  ? H
   H67        1.0     0.030761     0.853406     0.340848    Uiso  ? H
   H68        1.0     0.853693     0.490101     0.797982    Uiso  ? H
   H69        1.0     0.978311     0.525492     0.766043    Uiso  ? H
   H70        1.0     0.959572     0.584997     0.842959    Uiso  ? H
   H71        1.0     0.231259     0.663068     0.861264    Uiso  ? H
   H72        1.0     0.132540     0.583735     0.803486    Uiso  ? H
   H73        1.0     0.135763     0.691693     0.834272    Uiso  ? H
   H74        1.0     0.509544     0.146708     0.906856    Uiso  ? H
   H75        1.0     0.587625     0.136949     0.973801    Uiso  ? H
   H76        1.0     0.604014     0.252378     0.950644    Uiso  ? H
   H77        1.0     0.692428     0.087231     0.502759    Uiso  ? H
   H78        1.0     0.608539     0.975202     0.544190    Uiso  ? H
   H79        1.0     0.584966     0.074382     0.553739    Uiso  ? H
   H80        1.0     0.241379     0.075650     0.133678    Uiso  ? H
   H81        1.0     0.139152     0.036015     0.197667    Uiso  ? H
   H82        1.0     0.258766     0.049802     0.224694    Uiso  ? H
   H83        1.0     0.395892     0.108837     0.298141    Uiso  ? H
   H84        1.0     0.436007     0.234691     0.297728    Uiso  ? H
   H85        1.0     0.369923     0.163871     0.374567    Uiso  ? H
   H86        1.0     0.201016     0.027514     0.870226    Uiso  ? H
   H87        1.0     0.326563     0.066195     0.838773    Uiso  ? H
   H88        1.0     0.253427     0.112131     0.797610    Uiso  ? H
   H89        1.0     0.294806     0.411705     0.260073    Uiso  ? H
   H90        1.0     0.386539     0.438935     0.190316    Uiso  ? H
   H91        1.0     0.267664     0.429751     0.169419    Uiso  ? H
   H92        1.0     0.448477     0.552481    -0.021053    Uiso  ? H
   H93        1.0     0.416498     0.478746     0.057684    Uiso  ? H
   H94        1.0     0.517880     0.599688     0.060490    Uiso  ? H
   H95        1.0     0.295661     0.740152     0.164822    Uiso  ? H
   H96        1.0     0.225843     0.803222     0.154346    Uiso  ? H
   H97        1.0     0.195076     0.719549     0.226827    Uiso  ? H
   H98        1.0     0.531606     0.950300     0.015582    Uiso  ? H
   H99        1.0     0.488996     0.876771     0.094422    Uiso  ? H
   H100       1.0     0.400879     0.893979     0.041802    Uiso  ? H
   H101       1.0     0.374605     0.504192     0.460635    Uiso  ? H
   H102       1.0     0.442399     0.451817     0.500481    Uiso  ? H
   H103       1.0     0.469465     0.570065     0.527787    Uiso  ? H
   H104       1.0     0.486847     0.801657     0.534340    Uiso  ? H
   H105       1.0     0.383877     0.734331     0.594893    Uiso  ? H
   H106       1.0     0.460313     0.861209     0.607547    Uiso  ? H
   H107       1.0     0.377549    -0.007336     0.591264    Uiso  ? H
   H108       1.0     0.416765    -0.038613     0.673840    Uiso  ? H
   H109       1.0     0.371230     0.045485     0.675525    Uiso  ? H
   H110       1.0     0.605064     0.946256     0.200650    Uiso  ? H
   H111       1.0     0.577895     0.823996     0.197684    Uiso  ? H
   H112       1.0     0.691445     0.912911     0.239607    Uiso  ? H
   H113       1.0     0.509309     0.027601     0.800662    Uiso  ? H
   H114       1.0     0.582698     0.972043     0.824685    Uiso  ? H
   H115       1.0     0.532884     0.016202     0.893710    Uiso  ? H
   H116       1.0     0.806889     0.022378     0.037317    Uiso  ? H
   H117       1.0     0.849536     0.111502     0.107633    Uiso  ? H
   H118       1.0     0.749991     0.991189     0.124934    Uiso  ? H
   H119       1.0     0.803210     0.190563     0.259380    Uiso  ? H
   H120       1.0     0.738721     0.119866     0.181308    Uiso  ? H
   H121       1.0     0.686721     0.082943     0.270928    Uiso  ? H
   H122       1.0     0.667958    -0.039702     0.653243    Uiso  ? H
   H123       1.0     0.655924     0.066239     0.647644    Uiso  ? H
   H124       1.0     0.651829     0.014773     0.733323    Uiso  ? H
   H125       1.0     0.941058     0.064020     0.764468    Uiso  ? H
   H126       1.0     0.813721     0.971444     0.762334    Uiso  ? H
   H127       1.0     0.848280     0.071286     0.821571    Uiso  ? H
   H128       1.0     0.945425     0.477769     0.141532    Uiso  ? H
   H129       1.0     0.961485     0.410077     0.069461    Uiso  ? H
   H130       1.0     0.940780     0.365671     0.159352    Uiso  ? H
   H131       1.0     0.915595     0.553908     0.231655    Uiso  ? H
   H132       1.0     0.997170     0.593536     0.308304    Uiso  ? H
   H133       1.0     0.910511     0.636769     0.294598    Uiso  ? H
   H134       1.0     0.766392     0.338074     0.597091    Uiso  ? H
   H135       1.0     0.738709     0.217217     0.582321    Uiso  ? H
   H136       1.0     0.729383     0.284837     0.508974    Uiso  ? H
   H137       1.0     0.866763     0.351539     0.291222    Uiso  ? H
   H138       1.0     0.807486     0.311540     0.377957    Uiso  ? H
   H139       1.0     0.934919     0.407651     0.372130    Uiso  ? H
   H140       1.0     0.762765     0.543257     0.441005    Uiso  ? H
   H141       1.0     0.888780     0.569009     0.456085    Uiso  ? H
   H142       1.0     0.786101     0.452997     0.478128    Uiso  ? H
   H143       1.0     0.668057     0.511460     0.082324    Uiso  ? H
   H144       1.0     0.667749     0.585568     0.010329    Uiso  ? H
   H145       1.0     0.679845     0.626683     0.101617    Uiso  ? H
   H146       1.0     0.058910     0.979268     0.832686    Uiso  ? H
   H147       1.0     0.966244     0.917812     0.765551    Uiso  ? H
   H148       1.0     0.096450     0.972060     0.741405    Uiso  ? H
   H149       1.0     0.917434     0.986944     0.943495    Uiso  ? H
   H150       1.0     0.913484     0.890317     0.890718    Uiso  ? H
   H151       1.0     0.008510     0.948331     0.958233    Uiso  ? H
   H152       1.0     0.704004     0.932014     0.468815    Uiso  ? H
   H153       1.0     0.818073     0.927297     0.479468    Uiso  ? H
   H154       1.0     0.780920     0.984757     0.547090    Uiso  ? H
   H155       1.0     0.570829     0.699826     0.646484    Uiso  ? H
   H156       1.0     0.550970     0.800402     0.639501    Uiso  ? H
   H157       1.0     0.659358     0.811798     0.684806    Uiso  ? H
   H158       1.0     0.646966     0.740930     0.260811    Uiso  ? H
   H159       1.0     0.680285     0.665789     0.209714    Uiso  ? H
   H160       1.0     0.716686     0.784128     0.177331    Uiso  ? H
   H161       1.0     0.873715     0.715609     0.382904    Uiso  ? H
   H162       1.0     0.757647     0.628529     0.343391    Uiso  ? H
   H163       1.0     0.760077     0.719845     0.400792    Uiso  ? H
   H164       1.0     0.648115     0.880962     0.830592    Uiso  ? H
   H165       1.0     0.770009     0.898650     0.852765    Uiso  ? H
   H166       1.0     0.713073     0.951307     0.908908    Uiso  ? H
   O1         1.0     0.060807     0.106683     0.324154    Uiso  ? O
   O2         1.0     0.186434     0.102734     0.420880    Uiso  ? O
   O3         1.0     0.071825     0.210460     0.008386    Uiso  ? O
   O4         1.0     0.067136     0.118207     0.663779    Uiso  ? O
   O5         1.0     0.053424     0.171807     0.529160    Uiso  ? O
   O6         1.0     0.168456     0.259775     0.416851    Uiso  ? O
   O7         1.0     0.141498     0.306680     0.695072    Uiso  ? O
   O8         1.0     0.045396     0.448014     0.898830    Uiso  ? O
   O9         1.0     0.123344     0.573266     0.594794    Uiso  ? O
   O10        1.0     0.118754     0.463298     0.702072    Uiso  ? O
   O11        1.0     0.075764     0.625722     0.472510    Uiso  ? O
   O12        1.0     0.161987     0.630823     0.343151    Uiso  ? O
   O13        1.0     0.101083     0.973322     0.527307    Uiso  ? O
   O14        1.0     0.158345     0.784045     0.395248    Uiso  ? O
   O15        1.0     0.241702     0.968304     0.436353    Uiso  ? O
   O16        1.0     0.277282     0.641904     0.686405    Uiso  ? O
   O17        1.0     0.107145     0.832004     0.882267    Uiso  ? O
   O18        1.0     0.142745     0.869326     0.616183    Uiso  ? O
   O19        1.0     0.220379     0.775359     0.682824    Uiso  ? O
   O20        1.0     0.256390     0.222947     0.305448    Uiso  ? O
   O21        1.0     0.424017     0.069318     0.083404    Uiso  ? O
   O22        1.0     0.295164     0.105727     0.535033    Uiso  ? O
   O23        1.0     0.532138     0.100234     0.409044    Uiso  ? O
   O24        1.0     0.351341     0.149948     0.991707    Uiso  ? O
   O25        1.0     0.244806     0.227073     0.945516    Uiso  ? O
   O26        1.0     0.469560     0.204738     0.603951    Uiso  ? O
   O27        1.0     0.382107     0.274351     0.189873    Uiso  ? O
   O28        1.0     0.499114     0.260709     0.081811    Uiso  ? O
   O29        1.0     0.315780     0.606905     0.291574    Uiso  ? O
   O30        1.0     0.422737     0.285804     0.493108    Uiso  ? O
   O31        1.0     0.584258     0.287138     0.433182    Uiso  ? O
   O32        1.0     0.233828     0.331387     0.553643    Uiso  ? O
   O33        1.0     0.250941     0.502988     0.592212    Uiso  ? O
   O34        1.0     0.546874     0.438442     0.413218    Uiso  ? O
   O35        1.0     0.423722     0.279257     0.880058    Uiso  ? O
   O36        1.0     0.475004     0.231858     0.750871    Uiso  ? O
   O37        1.0     0.227255     0.434366     0.802081    Uiso  ? O
   O38        1.0     0.230755     0.501738     0.938090    Uiso  ? O
   O39        1.0     0.368903     0.446963     0.658796    Uiso  ? O
   O40        1.0     0.427624     0.374301     0.760193    Uiso  ? O
   O41        1.0     0.389901     0.644006     0.154064    Uiso  ? O
   O42        1.0     0.424154     0.963199     0.197986    Uiso  ? O
   O43        1.0     0.302385     0.917744     0.311132    Uiso  ? O
   O44        1.0     0.355092     0.680714     0.020758    Uiso  ? O
   O45        1.0     0.547782     0.609158     0.380779    Uiso  ? O
   O46        1.0     0.279954     0.725830     0.454696    Uiso  ? O
   O47        1.0     0.416827     0.918507     0.452614    Uiso  ? O
   O48        1.0     0.420369     0.834894     0.295818    Uiso  ? O
   O49        1.0     0.550738     0.782308     0.362320    Uiso  ? O
   O50        1.0     0.580472     0.962827     0.369744    Uiso  ? O
   O51        1.0     0.394403     0.581276     0.857566    Uiso  ? O
   O52        1.0     0.512632     0.566116     0.755302    Uiso  ? O
   O53        1.0     0.376176     0.807605     0.764904    Uiso  ? O
   O54        1.0     0.413511     0.788354     0.901116    Uiso  ? O
   O55        1.0     0.305705     0.878352     0.871416    Uiso  ? O
   O56        1.0     0.937844     0.013331     0.210011    Uiso  ? O
   O57        1.0     0.545964     0.153105     0.195423    Uiso  ? O
   O58        1.0     0.641391     0.237661     0.314712    Uiso  ? O
   O59        1.0     0.899091     0.223719     0.001729    Uiso  ? O
   O60        1.0     0.895292     0.116603     0.619613    Uiso  ? O
   O61        1.0     0.724844     0.314416     0.185087    Uiso  ? O
   O62        1.0     0.745245     0.233259     0.065809    Uiso  ? O
   O63        1.0     0.581408     0.376730     0.194199    Uiso  ? O
   O64        1.0     0.583229     0.509549     0.281045    Uiso  ? O
   O65        1.0     0.868714     0.417458     0.950829    Uiso  ? O
   O66        1.0     0.744425     0.401633     0.055424    Uiso  ? O
   O67        1.0     0.971920     0.443103     0.511677    Uiso  ? O
   O68        1.0     0.608086     0.408527     0.538755    Uiso  ? O
   O69        1.0     0.562099     0.477698     0.655527    Uiso  ? O
   O70        1.0     0.709481     0.437541     0.306342    Uiso  ? O
   O71        1.0     0.848410     0.215108     0.715511    Uiso  ? O
   O72        1.0     0.876061     0.317969     0.836016    Uiso  ? O
   O73        1.0     0.599815     0.397599     0.813146    Uiso  ? O
   O74        1.0     0.720992     0.457803     0.921352    Uiso  ? O
   O75        1.0     0.950835     0.577829     0.587379    Uiso  ? O
   O76        1.0     0.757817     0.546169     0.610307    Uiso  ? O
   O77        1.0     0.874157     0.578297     0.001607    Uiso  ? O
   O78        1.0     0.903772     0.661903     0.128717    Uiso  ? O
   O79        1.0     0.881221     0.749450     0.013384    Uiso  ? O
   O80        1.0     0.858758     0.879889     0.094006    Uiso  ? O
   O81        1.0     0.611327     0.731245     0.486396    Uiso  ? O
   O82        1.0     0.918498     0.794027     0.225081    Uiso  ? O
   O83        1.0     0.742849     0.580397     0.808284    Uiso  ? O
   O84        1.0     0.894217     0.627562     0.710314    Uiso  ? O
   O85        1.0     0.917962     0.737517     0.826972    Uiso  ? O
   O86        1.0     0.595660     0.682325     0.873459    Uiso  ? O
   O87        1.0     0.725815     0.776827     0.985803    Uiso  ? O
   O88        1.0     0.548590     0.768405     0.982260    Uiso  ? O
   O89        1.0     0.963016     0.856085     0.631295    Uiso  ? O
   O90        1.0     0.773634     0.772932     0.575751    Uiso  ? O
   O91        1.0     0.801064     0.730404     0.714354    Uiso  ? O
