
#======================================================================
# CRYSTAL DATA
#----------------------------------------------------------------------
data_VESTA_phase_1

_chemical_name_common                  '333U-50C-20                           '
_cell_length_a                         15.238206
_cell_length_b                         15.797261
_cell_length_c                         17.026508
_cell_angle_alpha                      91.385567
_cell_angle_beta                       91.508362
_cell_angle_gamma                      113.356110
_cell_volume                           3758.823759
_space_group_name_H-M_alt              'P 1'
_space_group_IT_number                 1

loop_
_space_group_symop_operation_xyz
   'x, y, z'

loop_
   _atom_site_label
   _atom_site_occupancy
   _atom_site_fract_x
   _atom_site_fract_y
   _atom_site_fract_z
   _atom_site_adp_type
   _atom_site_U_iso_or_equiv
   _atom_site_type_symbol
   Si1        1.0     0.121336     0.928644     0.152633    Uiso  ? Si
   Si2        1.0     0.028059     0.198569     0.205765    Uiso  ? Si
   Si3        1.0     0.182300     0.205063     0.978697    Uiso  ? Si
   Si4        1.0     0.203126     0.018124     0.434537    Uiso  ? Si
   Si5        1.0     0.976139     0.128233     0.571612    Uiso  ? Si
   Si6        1.0     0.197334     0.022418     0.756895    Uiso  ? Si
   Si7        1.0    -0.003835     0.182993     0.867782    Uiso  ? Si
   Si8        1.0     0.161128     0.170258     0.657067    Uiso  ? Si
   Si9        1.0     0.175006     0.347509     0.107278    Uiso  ? Si
   Si10       1.0     0.983161     0.454733     0.305937    Uiso  ? Si
   Si11       1.0     0.208961     0.516517     0.001190    Uiso  ? Si
   Si12       1.0     0.159779     0.454632     0.387301    Uiso  ? Si
   Si13       1.0     0.142576     0.323623     0.778138    Uiso  ? Si
   Si14       1.0     0.142376     0.483522     0.667555    Uiso  ? Si
   Si15       1.0     0.163917     0.668656     0.078799    Uiso  ? Si
   Si16       1.0     0.178428     0.852693     0.992899    Uiso  ? Si
   Si17       1.0     0.161286     0.640848     0.453906    Uiso  ? Si
   Si18       1.0     0.052974     0.879936     0.526672    Uiso  ? Si
   Si19       1.0     0.106991     0.650848     0.723960    Uiso  ? Si
   Si20       1.0     0.985814     0.822896     0.908069    Uiso  ? Si
   Si21       1.0     0.189724     0.852490     0.653861    Uiso  ? Si
   Si22       1.0     0.320267     0.081855     0.191575    Uiso  ? Si
   Si23       1.0     0.490062     0.204972     0.012149    Uiso  ? Si
   Si24       1.0     0.478428     0.952102     0.419356    Uiso  ? Si
   Si25       1.0     0.358714     0.154936     0.530395    Uiso  ? Si
   Si26       1.0     0.493477     0.109706     0.310827    Uiso  ? Si
   Si27       1.0     0.464056     0.979210     0.763244    Uiso  ? Si
   Si28       1.0     0.333380     0.166545     0.880816    Uiso  ? Si
   Si29       1.0     0.505233     0.114124     0.632505    Uiso  ? Si
   Si30       1.0     0.296958     0.459506     0.252151    Uiso  ? Si
   Si31       1.0     0.599371     0.599856     0.013469    Uiso  ? Si
   Si32       1.0     0.474740     0.270063     0.400151    Uiso  ? Si
   Si33       1.0     0.315923     0.478776     0.572935    Uiso  ? Si
   Si34       1.0     0.469184     0.444470     0.341908    Uiso  ? Si
   Si35       1.0     0.402012     0.540085     0.912950    Uiso  ? Si
   Si36       1.0     0.502806     0.541929     0.668151    Uiso  ? Si
   Si37       1.0     0.556970     0.738070     0.108957    Uiso  ? Si
   Si38       1.0     0.291072     0.788667     0.218720    Uiso  ? Si
   Si39       1.0     0.545479     0.892633     0.007930    Uiso  ? Si
   Si40       1.0     0.441968     0.589259     0.442498    Uiso  ? Si
   Si41       1.0     0.327958     0.818532     0.534639    Uiso  ? Si
   Si42       1.0     0.435364     0.771237     0.332189    Uiso  ? Si
   Si43       1.0     0.489694     0.680709     0.789208    Uiso  ? Si
   Si44       1.0     0.363273     0.893486     0.909872    Uiso  ? Si
   Si45       1.0     0.452474     0.803625     0.671663    Uiso  ? Si
   Si46       1.0     0.910977     0.062913     0.074028    Uiso  ? Si
   Si47       1.0     0.693319     0.151625     0.233447    Uiso  ? Si
   Si48       1.0     0.870055     0.215630     0.995590    Uiso  ? Si
   Si49       1.0     0.859589    -0.000650     0.427614    Uiso  ? Si
   Si50       1.0     0.647522     0.060131     0.530450    Uiso  ? Si
   Si51       1.0     0.866235     0.153242     0.320550    Uiso  ? Si
   Si52       1.0     0.668132     0.193690     0.933112    Uiso  ? Si
   Si53       1.0     0.822241     0.328949     0.185474    Uiso  ? Si
   Si54       1.0     0.649830     0.450148     0.263998    Uiso  ? Si
   Si55       1.0     0.782807     0.449906     0.063753    Uiso  ? Si
   Si56       1.0     0.795532     0.246397     0.458997    Uiso  ? Si
   Si57       1.0     0.795458     0.425976     0.394392    Uiso  ? Si
   Si58       1.0     0.775508     0.323278     0.799617    Uiso  ? Si
   Si59       1.0     0.714475     0.576291     0.869359    Uiso  ? Si
   Si60       1.0     0.834310     0.596747     0.613404    Uiso  ? Si
   Si61       1.0     0.801381     0.606423     0.173576    Uiso  ? Si
   Si62       1.0     0.691049     0.864914     0.255396    Uiso  ? Si
   Si63       1.0     0.807189     0.799673     0.369229    Uiso  ? Si
   Si64       1.0     0.852256     0.718609     0.765575    Uiso  ? Si
   Si65       1.0     0.666539     0.843766     0.877552    Uiso  ? Si
   Si66       1.0     0.849640     0.865015     0.648801    Uiso  ? Si
   C1         1.0     0.053329     0.819860     0.200920    Uiso  ? C
   C2         1.0     0.165843     0.102154     0.033803    Uiso  ? C
   C3         1.0     0.134165     0.074476     0.381512    Uiso  ? C
   C4         1.0     0.045304     0.230938     0.514322    Uiso  ? C
   C5         1.0     0.887759     0.139797     0.638004    Uiso  ? C
   C6         1.0     0.020004     0.430122     0.622987    Uiso  ? C
   C7         1.0     0.038707     0.584334     0.075481    Uiso  ? C
   C8         1.0     0.080986     0.678392     0.393953    Uiso  ? C
   C9         1.0    -0.021526     0.935178     0.888366    Uiso  ? C
   C10        1.0     0.918782     0.772196    -0.003715    Uiso  ? C
   C11        1.0     0.314828     0.194852     0.213317    Uiso  ? C
   C12        1.0     0.481015     0.312628     0.049082    Uiso  ? C
   C13        1.0     0.380404     0.257889     0.594153    Uiso  ? C
   C14        1.0     0.415789     0.241433     0.810240    Uiso  ? C
   C15        1.0     0.574034     0.233284     0.670208    Uiso  ? C
   C16        1.0     0.568123     0.345741     0.471456    Uiso  ? C
   C17        1.0     0.392144     0.440908     0.849014    Uiso  ? C
   C18        1.0     0.561462     0.460526     0.679120    Uiso  ? C
   C19        1.0     0.462462     0.638778     0.150589    Uiso  ? C
   C20        1.0     0.367488     0.870828     0.148584    Uiso  ? C
   C21        1.0     0.255086     0.845129     0.301426    Uiso  ? C
   C22        1.0     0.605865     0.990770     0.077829    Uiso  ? C
   C23        1.0     0.552127     0.692699     0.467985    Uiso  ? C
   C24        1.0     0.080365     0.636172     0.829533    Uiso  ? C
   C25        1.0     0.308503     0.775809     0.866544    Uiso  ? C
   C26        1.0     0.594325     0.017055     0.779190    Uiso  ? C
   C27        1.0     0.795695     0.273630     0.704989    Uiso  ? C
   C28        1.0     0.894528     0.383159     0.851421    Uiso  ? C
   C29        1.0     0.815849     0.544136     0.892932    Uiso  ? C
   C30        1.0     0.931460     0.626636     0.541553    Uiso  ? C
   C31        1.0     0.733792     0.623003     0.571785    Uiso  ? C
   C32        1.0     0.794763     0.472925     0.636639    Uiso  ? C
   C33        1.0     0.793198     0.718747     0.160466    Uiso  ? C
   C34        1.0     0.896896     0.610839     0.244614    Uiso  ? C
   C35        1.0     0.823733     0.942419     0.075841    Uiso  ? C
   C36        1.0     0.757844     0.937341     0.824332    Uiso  ? C
   C37        1.0     0.730264     0.855267     0.611141    Uiso  ? C
   H1         1.0     0.107338     0.195088     0.255060    Uiso  ? H
   H2         1.0     0.055076    -0.024473     0.140439    Uiso  ? H
   H3         1.0     0.279533     0.010064     0.387642    Uiso  ? H
   H4         1.0     0.966131     0.093759     0.824400    Uiso  ? H
   H5         1.0     0.134330     0.494736     0.937797    Uiso  ? H
   H6         1.0     0.157118     0.408288     0.461271    Uiso  ? H
   H7         1.0     0.043499     0.547118     0.280773    Uiso  ? H
   H8         1.0     0.118486     0.596380     0.527276    Uiso  ? H
   H9         1.0     0.970009     0.801451     0.490745    Uiso  ? H
   H10        1.0     0.019552     0.614476     0.672415    Uiso  ? H
   H11        1.0     0.096023     0.978544     0.775644    Uiso  ? H
   H12        1.0     0.343781     0.070155     0.109255    Uiso  ? H
   H13        1.0     0.491404     0.142019     0.075028    Uiso  ? H
   H14        1.0     0.209029     0.212515     0.586401    Uiso  ? H
   H15        1.0     0.605768     0.535868     0.072609    Uiso  ? H
   H16        1.0     0.290850     0.389139     0.530446    Uiso  ? H
   H17        1.0     0.206793     0.347335     0.847953    Uiso  ? H
   H18        1.0     0.540389     0.606697     0.604125    Uiso  ? H
   H19        1.0     0.299396     0.548144     0.225988    Uiso  ? H
   H20        1.0     0.390451     0.598230     0.370125    Uiso  ? H
   H21        1.0     0.514703     0.745490     0.309188    Uiso  ? H
   H22        1.0     0.555273     0.845144     0.655907    Uiso  ? H
   H23        1.0     0.979185     0.072430     0.011424    Uiso  ? H
   H24        1.0     0.682954     0.134768     0.148400    Uiso  ? H
   H25        1.0     0.757033    -0.023330     0.439433    Uiso  ? H
   H26        1.0     0.716689     0.028177     0.566591    Uiso  ? H
   H27        1.0     0.621979     0.092399     0.927810    Uiso  ? H
   H28        1.0     0.944124     0.304678     0.024154    Uiso  ? H
   H29        1.0     0.844212     0.270419     0.128174    Uiso  ? H
   H30        1.0     0.592793     0.363374     0.220059    Uiso  ? H
   H31        1.0     0.689609     0.415738     0.019636    Uiso  ? H
   H32        1.0     0.861734     0.288490     0.526987    Uiso  ? H
   H33        1.0     0.791475     0.488021     0.458540    Uiso  ? H
   H34        1.0     0.630757     0.496947     0.834934    Uiso  ? H
   H35        1.0     0.859047     0.438331     0.018352    Uiso  ? H
   H36        1.0     0.726339     0.387334     0.789401    Uiso  ? H
   H37        1.0     0.785628     0.931190     0.231288    Uiso  ? H
   H38        1.0     0.638580     0.912467     0.296824    Uiso  ? H
   H39        1.0     0.396233     0.733614     0.408088    Uiso  ? H
   H40        1.0     0.869878     0.769095     0.321646    Uiso  ? H
   H41        1.0     0.770908     0.740052     0.436734    Uiso  ? H
   H42        1.0     0.710424     0.790961     0.923184    Uiso  ? H
   H43        1.0     0.030659     0.958797     0.551942    Uiso  ? H
   H44        1.0     0.915263    -0.038471     0.669497    Uiso  ? H
   H45        1.0     0.892315     0.823719     0.589316    Uiso  ? H
   H46        1.0     0.090765     0.773563     0.205051    Uiso  ? H
   H47        1.0    -0.012052     0.784502     0.164217    Uiso  ? H
   H48        1.0     0.031777     0.832068     0.259840    Uiso  ? H
   H49        1.0     0.236813     0.104085     0.050337    Uiso  ? H
   H50        1.0     0.128514     0.038176    -0.001109    Uiso  ? H
   H51        1.0     0.126092     0.098963     0.087040    Uiso  ? H
   H52        1.0     0.074254     0.074228     0.416039    Uiso  ? H
   H53        1.0     0.105095     0.039086     0.324467    Uiso  ? H
   H54        1.0     0.180446     0.146579     0.370652    Uiso  ? H
   H55        1.0    -0.001701     0.253485     0.478402    Uiso  ? H
   H56        1.0     0.092633     0.214835     0.474448    Uiso  ? H
   H57        1.0     0.091014     0.289702     0.552613    Uiso  ? H
   H58        1.0     0.845502     0.072801     0.662676    Uiso  ? H
   H59        1.0     0.838951     0.166113     0.609777    Uiso  ? H
   H60        1.0     0.926058     0.187278     0.687299    Uiso  ? H
   H61        1.0     0.003048     0.358598     0.603149    Uiso  ? H
   H62        1.0     0.010744     0.467791     0.572313    Uiso  ? H
   H63        1.0     0.967631     0.428891     0.666341    Uiso  ? H
   H64        1.0     0.029322     0.526860     0.114113    Uiso  ? H
   H65        1.0     0.018195     0.555700     0.015012    Uiso  ? H
   H66        1.0    -0.011220     0.615246     0.092421    Uiso  ? H
   H67        1.0     0.007016     0.627490     0.392853    Uiso  ? H
   H68        1.0     0.104022     0.688880     0.333205    Uiso  ? H
   H69        1.0     0.083083     0.744258     0.418158    Uiso  ? H
   H70        1.0     0.921038     0.942466     0.921650    Uiso  ? H
   H71        1.0     0.963267     0.940400     0.825859    Uiso  ? H
   H72        1.0     0.045127     0.993864     0.905175    Uiso  ? H
   H73        1.0     0.930307     0.711802     0.016449    Uiso  ? H
   H74        1.0     0.841593     0.751172     0.984676    Uiso  ? H
   H75        1.0     0.940716     0.824710     0.044503    Uiso  ? H
   H76        1.0     0.291356     0.199022     0.273142    Uiso  ? H
   H77        1.0     0.264587     0.206852     0.172319    Uiso  ? H
   H78        1.0     0.385069     0.251679     0.208611    Uiso  ? H
   H79        1.0     0.490628     0.360810     0.001309    Uiso  ? H
   H80        1.0     0.536307     0.347805     0.095120    Uiso  ? H
   H81        1.0     0.410783     0.298737     0.073425    Uiso  ? H
   H82        1.0     0.358846     0.242103     0.654616    Uiso  ? H
   H83        1.0     0.346062     0.301187     0.570028    Uiso  ? H
   H84        1.0     0.457678     0.298430     0.596196    Uiso  ? H
   H85        1.0     0.379742     0.272681     0.771097    Uiso  ? H
   H86        1.0     0.442744     0.198343     0.775310    Uiso  ? H
   H87        1.0     0.477150     0.296882     0.840243    Uiso  ? H
   H88        1.0     0.626181     0.274049     0.628312    Uiso  ? H
   H89        1.0     0.612633     0.230206     0.724527    Uiso  ? H
   H90        1.0     0.528763     0.269754     0.685187    Uiso  ? H
   H91        1.0     0.624312     0.400276     0.441274    Uiso  ? H
   H92        1.0     0.601345     0.308140     0.506252    Uiso  ? H
   H93        1.0     0.535705     0.380558     0.510469    Uiso  ? H
   H94        1.0     0.357913     0.376341     0.879593    Uiso  ? H
   H95        1.0     0.465063     0.449085     0.835522    Uiso  ? H
   H96        1.0     0.352497     0.436334     0.793341    Uiso  ? H
   H97        1.0     0.571780     0.432897     0.622061    Uiso  ? H
   H98        1.0     0.519113     0.402949     0.715246    Uiso  ? H
   H99        1.0     0.631766     0.496202     0.708676    Uiso  ? H
   H100       1.0     0.420064     0.590144     0.103287    Uiso  ? H
   H101       1.0     0.414306     0.660621     0.184133    Uiso  ? H
   H102       1.0     0.493343     0.602526     0.189667    Uiso  ? H
   H103       1.0     0.333287     0.912872     0.121387    Uiso  ? H
   H104       1.0     0.385498     0.832812     0.101378    Uiso  ? H
   H105       1.0     0.434163     0.918121     0.178770    Uiso  ? H
   H106       1.0     0.254778     0.810541     0.356473    Uiso  ? H
   H107       1.0     0.186621     0.851346     0.294409    Uiso  ? H
   H108       1.0     0.309809     0.915696     0.308206    Uiso  ? H
   H109       1.0     0.674918     0.038148     0.057034    Uiso  ? H
   H110       1.0     0.618395     0.967497     0.135673    Uiso  ? H
   H111       1.0     0.560137     0.029046     0.085848    Uiso  ? H
   H112       1.0     0.588877     0.723316     0.414631    Uiso  ? H
   H113       1.0     0.601613     0.673452     0.503906    Uiso  ? H
   H114       1.0     0.536042     0.744893     0.501252    Uiso  ? H
   H115       1.0     0.129724     0.611392     0.859536    Uiso  ? H
   H116       1.0     0.007287     0.584553     0.835318    Uiso  ? H
   H117       1.0     0.084834     0.699999     0.859190    Uiso  ? H
   H118       1.0     0.359090     0.756734     0.833980    Uiso  ? H
   H119       1.0     0.250068     0.770573     0.825363    Uiso  ? H
   H120       1.0     0.280443     0.726354     0.913055    Uiso  ? H
   H121       1.0     0.622582     0.995860     0.727056    Uiso  ? H
   H122       1.0     0.611949     0.986402     0.830981    Uiso  ? H
   H123       1.0     0.630773     0.092186     0.786669    Uiso  ? H
   H124       1.0     0.754839     0.198667     0.702661    Uiso  ? H
   H125       1.0     0.871556     0.286527     0.702358    Uiso  ? H
   H126       1.0     0.775807     0.302160     0.652900    Uiso  ? H
   H127       1.0     0.935223     0.444733     0.818510    Uiso  ? H
   H128       1.0     0.934802     0.339139     0.849425    Uiso  ? H
   H129       1.0     0.892830     0.406045     0.912414    Uiso  ? H
   H130       1.0     0.853988     0.543799     0.839249    Uiso  ? H
   H131       1.0     0.789760     0.474163     0.914732    Uiso  ? H
   H132       1.0     0.866723     0.591921     0.936488    Uiso  ? H
   H133       1.0     0.907054     0.643052     0.484949    Uiso  ? H
   H134       1.0     0.953124     0.569005     0.531155    Uiso  ? H
   H135       1.0     0.994740     0.686555     0.562836    Uiso  ? H
   H136       1.0     0.689639     0.569389     0.528249    Uiso  ? H
   H137       1.0     0.761869     0.688759     0.541986    Uiso  ? H
   H138       1.0     0.687046     0.628474     0.617707    Uiso  ? H
   H139       1.0     0.771511     0.429203     0.582545    Uiso  ? H
   H140       1.0     0.736525     0.449151     0.677663    Uiso  ? H
   H141       1.0     0.855896     0.462217     0.662911    Uiso  ? H
   H142       1.0     0.731918     0.717751     0.193217    Uiso  ? H
   H143       1.0     0.781305     0.732357     0.099458    Uiso  ? H
   H144       1.0     0.857036     0.775773     0.185232    Uiso  ? H
   H145       1.0     0.968829     0.644537     0.222554    Uiso  ? H
   H146       1.0     0.884543     0.539493     0.256641    Uiso  ? H
   H147       1.0     0.894268     0.646129     0.300264    Uiso  ? H
   H148       1.0     0.852810     0.899572     0.108270    Uiso  ? H
   H149       1.0     0.805751     0.913437     0.015361    Uiso  ? H
   H150       1.0     0.757192     0.936532     0.102584    Uiso  ? H
   H151       1.0     0.728788     0.951948     0.769291    Uiso  ? H
   H152       1.0     0.817251     0.918039     0.810553    Uiso  ? H
   H153       1.0     0.785536     0.001352     0.861025    Uiso  ? H
   H154       1.0     0.731173     0.872712     0.549023    Uiso  ? H
   H155       1.0     0.705329     0.901118     0.644501    Uiso  ? H
   H156       1.0     0.677282     0.784376     0.616230    Uiso  ? H
   O1         1.0     0.085480     0.198614     0.929578    Uiso  ? O
   O2         1.0     0.050620     0.104296     0.630835    Uiso  ? O
   O3         1.0     0.211733     0.107866     0.698201    Uiso  ? O
   O4         1.0     0.071108     0.280853     0.141867    Uiso  ? O
   O5         1.0     0.212276     0.293511     0.041825    Uiso  ? O
   O6         1.0     0.166941     0.436514     0.066613    Uiso  ? O
   O7         1.0     0.052338     0.408865     0.344586    Uiso  ? O
   O8         1.0     0.031825     0.266989     0.805386    Uiso  ? O
   O9         1.0     0.168703     0.255787     0.717621    Uiso  ? O
   O10        1.0     0.151268     0.419165     0.739246    Uiso  ? O
   O11        1.0     0.230981     0.617228     0.043841    Uiso  ? O
   O12        1.0     0.175195     0.753964     0.021717    Uiso  ? O
   O13        1.0     0.155548     0.907221     0.066474    Uiso  ? O
   O14        1.0     0.190872     0.565882     0.402779    Uiso  ? O
   O15        1.0     0.132722     0.912519     0.458061    Uiso  ? O
   O16        1.0     0.169299     0.588856     0.701230    Uiso  ? O
   O17        1.0     0.098431     0.835716     0.921719    Uiso  ? O
   O18        1.0     0.092749     0.843330     0.604344    Uiso  ? O
   O19        1.0     0.167382     0.759868     0.703417    Uiso  ? O
   O20        1.0     0.226169     0.943539     0.713782    Uiso  ? O
   O21        1.0     0.215388    -0.002353     0.205895    Uiso  ? O
   O22        1.0     0.249435     0.076661     0.518995    Uiso  ? O
   O23        1.0     0.403528     0.069094     0.247993    Uiso  ? O
   O24        1.0     0.468742     0.044073     0.386555    Uiso  ? O
   O25        1.0     0.261697     0.067750     0.837575    Uiso  ? O
   O26        1.0     0.397475     0.147073     0.951927    Uiso  ? O
   O27        1.0     0.268204     0.219899     0.917432    Uiso  ? O
   O28        1.0     0.430304     0.106544     0.559933    Uiso  ? O
   O29        1.0     0.445368     0.051519     0.703850    Uiso  ? O
   O30        1.0     0.252018     0.380542     0.181517    Uiso  ? O
   O31        1.0     0.233344     0.431579     0.330954    Uiso  ? O
   O32        1.0     0.385434     0.191051     0.440993    Uiso  ? O
   O33        1.0     0.516318     0.216538     0.337090    Uiso  ? O
   O34        1.0     0.218976     0.486103     0.601949    Uiso  ? O
   O35        1.0     0.404129     0.463725     0.273014    Uiso  ? O
   O36        1.0     0.429451     0.333707     0.352956    Uiso  ? O
   O37        1.0     0.490957     0.557479     0.975701    Uiso  ? O
   O38        1.0     0.307305     0.519015     0.964827    Uiso  ? O
   O39        1.0     0.386998     0.484932     0.648801    Uiso  ? O
   O40        1.0     0.623259     0.702216     0.053323    Uiso  ? O
   O41        1.0     0.199731     0.707500     0.169280    Uiso  ? O
   O42        1.0     0.511585     0.794659     0.053237    Uiso  ? O
   O43        1.0     0.367355     0.563303     0.514557    Uiso  ? O
   O44        1.0     0.467479     0.497958     0.424515    Uiso  ? O
   O45        1.0     0.256654     0.733546     0.478572    Uiso  ? O
   O46        1.0     0.394170     0.900617     0.479362    Uiso  ? O
   O47        1.0     0.271778     0.862897     0.591043    Uiso  ? O
   O48        1.0     0.354049     0.735221     0.260578    Uiso  ? O
   O49        1.0     0.475404     0.884603     0.344511    Uiso  ? O
   O50        1.0     0.423161     0.634302     0.863121    Uiso  ? O
   O51        1.0     0.523202     0.603346     0.750924    Uiso  ? O
   O52        1.0     0.452054     0.903715     0.970123    Uiso  ? O
   O53        1.0     0.405635     0.972847     0.843602    Uiso  ? O
   O54        1.0     0.283278     0.914963     0.960751    Uiso  ? O
   O55        1.0     0.392935     0.778125     0.587242    Uiso  ? O
   O56        1.0     0.429230     0.709964     0.721646    Uiso  ? O
   O57        1.0     0.420525     0.875439     0.720947    Uiso  ? O
   O58        1.0     0.973247     0.099263     0.157999    Uiso  ? O
   O59        1.0     0.589715     0.108597     0.272376    Uiso  ? O
   O60        1.0     0.902919     0.186447     0.911114    Uiso  ? O
   O61        1.0     0.855756     0.132133     0.055543    Uiso  ? O
   O62        1.0     0.922327     0.039873     0.508634    Uiso  ? O
   O63        1.0     0.582307     0.981660     0.465269    Uiso  ? O
   O64        1.0     0.581264     0.072652     0.599357    Uiso  ? O
   O65        1.0     0.949570     0.214692     0.262414    Uiso  ? O
   O66        1.0     0.762852     0.104967     0.272473    Uiso  ? O
   O67        1.0     0.895769     0.073430     0.357380    Uiso  ? O
   O68        1.0     0.767592     0.225857     0.987557    Uiso  ? O
   O69        1.0     0.593925     0.234423     0.969107    Uiso  ? O
   O70        1.0     0.747960     0.264331     0.249246    Uiso  ? O
   O71        1.0     0.923298     0.396030     0.228412    Uiso  ? O
   O72        1.0     0.580633     0.482430     0.318224    Uiso  ? O
   O73        1.0     0.769842     0.389276     0.143478    Uiso  ? O
   O74        1.0     0.703600     0.157417     0.486492    Uiso  ? O
   O75        1.0     0.855870     0.218640     0.392464    Uiso  ? O
   O76        1.0     0.907525     0.457119     0.372218    Uiso  ? O
   O77        1.0     0.730448     0.434524     0.320350    Uiso  ? O
   O78        1.0     0.755110     0.320404     0.425176    Uiso  ? O
   O79        1.0     0.698546     0.235369     0.847057    Uiso  ? O
   O80        1.0     0.679007     0.613925     0.947701    Uiso  ? O
   O81        1.0     0.698352     0.534561     0.206198    Uiso  ? O
   O82        1.0     0.815188     0.559571     0.088794    Uiso  ? O
   O83        1.0     0.627762     0.808587     0.177911    Uiso  ? O
   O84        1.0     0.712637     0.794929     0.317147    Uiso  ? O
   O85        1.0     0.873920     0.905990     0.400423    Uiso  ? O
   O86        1.0     0.750541     0.658800     0.805657    Uiso  ? O
   O87        1.0     0.875539     0.658191     0.697381    Uiso  ? O
   O88        1.0     0.940999     0.751863     0.830606    Uiso  ? O
   O89        1.0     0.582845     0.772152     0.816559    Uiso  ? O
   O90        1.0     0.616912     0.892459     0.938038    Uiso  ? O
   O91        1.0     0.838934     0.807382     0.730058    Uiso  ? O
