
#======================================================================
# CRYSTAL DATA
#----------------------------------------------------------------------
data_VESTA_phase_1

_chemical_name_common                  '333U-50C-26                           '
_cell_length_a                         15.526412
_cell_length_b                         15.716868
_cell_length_c                         17.610508
_cell_angle_alpha                      90.429466
_cell_angle_beta                       83.190674
_cell_angle_gamma                      116.181808
_cell_volume                           3824.459286
_space_group_name_H-M_alt              'P 1'
_space_group_IT_number                 1

loop_
_space_group_symop_operation_xyz
   'x, y, z'

loop_
   _atom_site_label
   _atom_site_occupancy
   _atom_site_fract_x
   _atom_site_fract_y
   _atom_site_fract_z
   _atom_site_adp_type
   _atom_site_U_iso_or_equiv
   _atom_site_type_symbol
   Si1        1.0     0.214592     0.071005     0.168502    Uiso  ? Si
   Si2        1.0     0.200866     0.192489     0.047808    Uiso  ? Si
   Si3        1.0     0.086941     0.121040     0.578811    Uiso  ? Si
   Si4        1.0     0.214963     0.242873     0.331566    Uiso  ? Si
   Si5        1.0     0.199843     0.032353     0.827140    Uiso  ? Si
   Si6        1.0     0.959724     0.138138     0.862138    Uiso  ? Si
   Si7        1.0     0.204798     0.174155     0.705100    Uiso  ? Si
   Si8        1.0     0.093220     0.317290     0.072451    Uiso  ? Si
   Si9        1.0     0.003602     0.475005     0.170307    Uiso  ? Si
   Si10       1.0     0.191373     0.314504     0.492119    Uiso  ? Si
   Si11       1.0     0.157034     0.536442     0.293772    Uiso  ? Si
   Si12       1.0     0.144426     0.312852     0.785319    Uiso  ? Si
   Si13       1.0     0.210229     0.521851     0.731642    Uiso  ? Si
   Si14       1.0     0.032456     0.918084     0.248452    Uiso  ? Si
   Si15       1.0     0.121064     0.668131     0.408077    Uiso  ? Si
   Si16       1.0     0.067155     0.821370     0.596479    Uiso  ? Si
   Si17       1.0     0.168677     0.873203     0.345300    Uiso  ? Si
   Si18       1.0     0.171496     0.662287     0.832099    Uiso  ? Si
   Si19       1.0     0.042721     0.860062     0.922865    Uiso  ? Si
   Si20       1.0     0.082834     0.660719     0.678716    Uiso  ? Si
   Si21       1.0     0.480981     0.001900     0.140111    Uiso  ? Si
   Si22       1.0     0.366910     0.179927     0.271301    Uiso  ? Si
   Si23       1.0     0.504449     0.169150     0.022105    Uiso  ? Si
   Si24       1.0     0.445249     0.907826     0.469159    Uiso  ? Si
   Si25       1.0     0.386971     0.221769     0.585542    Uiso  ? Si
   Si26       1.0     0.491418     0.190847     0.390707    Uiso  ? Si
   Si27       1.0     0.505652     0.017109     0.774444    Uiso  ? Si
   Si28       1.0     0.348661     0.169495     0.924203    Uiso  ? Si
   Si29       1.0     0.553948     0.178478     0.647747    Uiso  ? Si
   Si30       1.0     0.526523     0.317290     0.145539    Uiso  ? Si
   Si31       1.0     0.361451     0.550719     0.223039    Uiso  ? Si
   Si32       1.0     0.446913     0.550844     0.961235    Uiso  ? Si
   Si33       1.0     0.490269     0.378223     0.462843    Uiso  ? Si
   Si34       1.0     0.332724     0.519315     0.536536    Uiso  ? Si
   Si35       1.0     0.495171     0.510092     0.333920    Uiso  ? Si
   Si36       1.0     0.493146     0.547915     0.645693    Uiso  ? Si
   Si37       1.0     0.523835     0.678127     0.096820    Uiso  ? Si
   Si38       1.0     0.320735     0.838599     0.229980    Uiso  ? Si
   Si39       1.0     0.508473     0.808956     0.971444    Uiso  ? Si
   Si40       1.0     0.475242     0.660885     0.418442    Uiso  ? Si
   Si41       1.0     0.486874     0.830543     0.318419    Uiso  ? Si
   Si42       1.0     0.490282     0.707627     0.756154    Uiso  ? Si
   Si43       1.0     0.351448     0.852598     0.871630    Uiso  ? Si
   Si44       1.0     0.468488     0.852987     0.668555    Uiso  ? Si
   Si45       1.0     0.805310     0.954017     0.080529    Uiso  ? Si
   Si46       1.0     0.799619     0.130603     0.987224    Uiso  ? Si
   Si47       1.0     0.631822     0.063840     0.530991    Uiso  ? Si
   Si48       1.0     0.974571     0.250301     0.340132    Uiso  ? Si
   Si49       1.0     0.830796     0.033259     0.742435    Uiso  ? Si
   Si50       1.0     0.649279     0.143237     0.893464    Uiso  ? Si
   Si51       1.0     0.942071     0.207813     0.640899    Uiso  ? Si
   Si52       1.0     0.842145     0.311863     0.093700    Uiso  ? Si
   Si53       1.0     0.671211     0.481096     0.231888    Uiso  ? Si
   Si54       1.0     0.793701     0.445319    -0.012306    Uiso  ? Si
   Si55       1.0     0.839606     0.343889     0.379318    Uiso  ? Si
   Si56       1.0     0.657643     0.514612     0.548685    Uiso  ? Si
   Si57       1.0     0.861115     0.515972     0.290254    Uiso  ? Si
   Si58       1.0     0.602751     0.565225     0.845772    Uiso  ? Si
   Si59       1.0     0.746054     0.463529     0.669691    Uiso  ? Si
   Si60       1.0     0.810380     0.608866     0.093992    Uiso  ? Si
   Si61       1.0     0.694214     0.861933     0.240593    Uiso  ? Si
   Si62       1.0     0.835420     0.790441     0.002782    Uiso  ? Si
   Si63       1.0     0.601813     0.816003     0.527112    Uiso  ? Si
   Si64       1.0     0.843437     0.902014     0.354681    Uiso  ? Si
   Si65       1.0     0.788554     0.658885     0.732404    Uiso  ? Si
   Si66       1.0     0.665475     0.871821     0.830174    Uiso  ? Si
   C1         1.0     0.224165     0.987291     0.099143    Uiso  ? C
   C2         1.0     0.020050     0.104308     0.930702    Uiso  ? C
   C3         1.0    -0.002057     0.210942     0.128027    Uiso  ? C
   C4         1.0     0.065698     0.360887    -0.015934    Uiso  ? C
   C5         1.0     0.140045     0.457706     0.376729    Uiso  ? C
   C6         1.0     0.230218     0.341120     0.856358    Uiso  ? C
   C7         1.0     0.008158     0.592065     0.472027    Uiso  ? C
   C8         1.0     0.226241     0.686740     0.457891    Uiso  ? C
   C9         1.0     0.174866     0.966398     0.412920    Uiso  ? C
   C10        1.0     0.093389     0.607403     0.922995    Uiso  ? C
   C11        1.0     0.131324     0.838987     0.972273    Uiso  ? C
   C12        1.0     0.226897     0.967285     0.747737    Uiso  ? C
   C13        1.0     0.508874     0.053104     0.233882    Uiso  ? C
   C14        1.0     0.344940     0.939828     0.466157    Uiso  ? C
   C15        1.0     0.606837     0.229208     0.329610    Uiso  ? C
   C16        1.0     0.436599     0.250807     0.846794    Uiso  ? C
   C17        1.0     0.302782     0.460309     0.155549    Uiso  ? C
   C18        1.0     0.458256     0.382581     0.128911    Uiso  ? C
   C19        1.0     0.420122     0.424206     0.956733    Uiso  ? C
   C20        1.0     0.330437     0.560289     0.963849    Uiso  ? C
   C21        1.0     0.427423     0.438524     0.708160    Uiso  ? C
   C22        1.0     0.578744     0.972455     0.101582    Uiso  ? C
   C23        1.0     0.358315     0.859618     0.645899    Uiso  ? C
   C24        1.0     0.919549     0.990154     0.119922    Uiso  ? C
   C25        1.0     0.886419     0.135207     0.308868    Uiso  ? C
   C26        1.0     0.746842     0.239447     0.830810    Uiso  ? C
   C27        1.0     0.710674     0.029934     0.581888    Uiso  ? C
   C28        1.0     0.899672     0.251015     0.562601    Uiso  ? C
   C29        1.0     0.736198     0.258590     0.166072    Uiso  ? C
   C30        1.0     0.695248     0.109080     0.433830    Uiso  ? C
   C31        1.0     0.763567     0.336632     0.470281    Uiso  ? C
   C32        1.0     0.893955     0.639217     0.316888    Uiso  ? C
   C33        1.0     0.669582     0.542436     0.917038    Uiso  ? C
   C34        1.0     0.840591     0.421589     0.651576    Uiso  ? C
   C35        1.0     0.673981     0.410748     0.763502    Uiso  ? C
   C36        1.0     0.940980     0.640693     0.086822    Uiso  ? C
   C37        1.0    -0.021988     0.830914     0.176157    Uiso  ? C
   C38        1.0     0.684759     0.740821     0.241013    Uiso  ? C
   C39        1.0     0.703420     0.798138     0.555822    Uiso  ? C
   C40        1.0     0.841229     0.774910     0.677962    Uiso  ? C
   C41        1.0    -0.011513     0.775310     0.849762    Uiso  ? C
   C42        1.0     0.763320     0.841454     0.845452    Uiso  ? C
   O1         1.0     0.241167     0.175261     0.126218    Uiso  ? O
   O2         1.0     0.128711     0.096676     0.653029    Uiso  ? O
   O3         1.0     0.193116     0.125582     0.789660    Uiso  ? O
   O4         1.0     0.184917     0.288234     0.049881    Uiso  ? O
   O5         1.0     0.176672     0.214774     0.533075    Uiso  ? O
   O6         1.0     0.230004     0.314441     0.402057    Uiso  ? O
   O7         1.0     0.082330     0.483909     0.228871    Uiso  ? O
   O8         1.0     0.033084     0.238290     0.815404    Uiso  ? O
   O9         1.0     0.181946     0.265919     0.712299    Uiso  ? O
   O10        1.0     0.140709     0.409660     0.755579    Uiso  ? O
   O11        1.0     0.103327     0.027313     0.213543    Uiso  ? O
   O12        1.0     0.132921     0.624134     0.323405    Uiso  ? O
   O13        1.0     0.097037     0.874287     0.284834    Uiso  ? O
   O14        1.0     0.117091     0.769213     0.391411    Uiso  ? O
   O15        1.0     0.220430     0.591674     0.803381    Uiso  ? O
   O16        1.0     0.096181     0.966541     0.878728    Uiso  ? O
   O17        1.0     0.037010     0.734475     0.662173    Uiso  ? O
   O18        1.0     0.107038     0.668848     0.767252    Uiso  ? O
   O19        1.0     0.287577     0.089039     0.233347    Uiso  ? O
   O20        1.0     0.322367     0.254234     0.295555    Uiso  ? O
   O21        1.0     0.477037     0.078325     0.078576    Uiso  ? O
   O22        1.0     0.315523     0.210418     0.664539    Uiso  ? O
   O23        1.0     0.393683     0.141426     0.346657    Uiso  ? O
   O24        1.0     0.282269     0.069632     0.885965    Uiso  ? O
   O25        1.0     0.403838     0.151731     0.991182    Uiso  ? O
   O26        1.0     0.275377     0.207546     0.970065    Uiso  ? O
   O27        1.0     0.475273     0.202895     0.610822    Uiso  ? O
   O28        1.0     0.501712     0.100537     0.721233    Uiso  ? O
   O29        1.0     0.464595     0.232544     0.211577    Uiso  ? O
   O30        1.0     0.550756     0.267168     0.068886    Uiso  ? O
   O31        1.0     0.273847     0.576926     0.261241    Uiso  ? O
   O32        1.0     0.422876     0.328793     0.545009    Uiso  ? O
   O33        1.0     0.500623     0.293048     0.418837    Uiso  ? O
   O34        1.0     0.270963     0.405253     0.530124    Uiso  ? O
   O35        1.0     0.412175     0.510553     0.283851    Uiso  ? O
   O36        1.0     0.448782     0.428168     0.404628    Uiso  ? O
   O37        1.0     0.427212     0.540849     0.577893    Uiso  ? O
   O38        1.0     0.448415     0.647761     0.176922    Uiso  ? O
   O39        1.0     0.492639     0.588189     0.041727    Uiso  ? O
   O40        1.0     0.371721     0.909856     0.153378    Uiso  ? O
   O41        1.0     0.270320     0.884031     0.295477    Uiso  ? O
   O42        1.0     0.526397     0.769881     0.051757    Uiso  ? O
   O43        1.0     0.369710     0.575454     0.452235    Uiso  ? O
   O44        1.0     0.540478     0.613010     0.373562    Uiso  ? O
   O45        1.0     0.404431     0.820499     0.265816    Uiso  ? O
   O46        1.0     0.454873     0.726190     0.358922    Uiso  ? O
   O47        1.0     0.496874     0.909698     0.381462    Uiso  ? O
   O48        1.0     0.516468     0.645712     0.690445    Uiso  ? O
   O49        1.0     0.254590     0.770945     0.839840    Uiso  ? O
   O50        1.0     0.396478     0.953434     0.819873    Uiso  ? O
   O51        1.0     0.426440     0.755949     0.723923    Uiso  ? O
   O52        1.0     0.532061     0.946998     0.716906    Uiso  ? O
   O53        1.0     0.875532     0.160255     0.909420    Uiso  ? O
   O54        1.0     0.796152     0.038221     0.032286    Uiso  ? O
   O55        1.0     0.522803     0.982313     0.521280    Uiso  ? O
   O56        1.0     0.612567     0.144030     0.582341    Uiso  ? O
   O57        1.0     0.911027     0.054928     0.802145    Uiso  ? O
   O58        1.0     0.580128     0.061369     0.838485    Uiso  ? O
   O59        1.0     0.695150     0.103837     0.957276    Uiso  ? O
   O60        1.0     0.581312     0.182013     0.946704    Uiso  ? O
   O61        1.0    -0.004770     0.143136     0.604479    Uiso  ? O
   O62        1.0     0.850178     0.136245     0.703910    Uiso  ? O
   O63        1.0     0.838081     0.222677     0.041208    Uiso  ? O
   O64        1.0     0.940669     0.367486     0.138216    Uiso  ? O
   O65        1.0     0.626803     0.389023     0.179446    Uiso  ? O
   O66        1.0     0.582790     0.496464     0.281054    Uiso  ? O
   O67        1.0     0.843755     0.394757     0.036569    Uiso  ? O
   O68        1.0     0.924861     0.311279     0.389844    Uiso  ? O
   O69        1.0     0.595650     0.457870     0.480279    Uiso  ? O
   O70        1.0     0.598097     0.559806     0.603815    Uiso  ? O
   O71        1.0     0.921964     0.507716     0.209450    Uiso  ? O
   O72        1.0     0.742451     0.463778     0.285183    Uiso  ? O
   O73        1.0     0.885857     0.457919     0.353921    Uiso  ? O
   O74        1.0     0.534385     0.612110     0.889987    Uiso  ? O
   O75        1.0     0.678453     0.439323     0.598691    Uiso  ? O
   O76        1.0     0.741915     0.575742     0.177152    Uiso  ? O
   O77        1.0     0.764761     0.518824     0.039057    Uiso  ? O
   O78        1.0     0.723805     0.916047     0.155904    Uiso  ? O
   O79        1.0     0.592887     0.867025     0.269843    Uiso  ? O
   O80        1.0     0.953545     0.854759     0.988389    Uiso  ? O
   O81        1.0     0.800405     0.704357     0.068548    Uiso  ? O
   O82        1.0     0.787340     0.862591     0.026345    Uiso  ? O
   O83        1.0     0.530121     0.719947     0.487435    Uiso  ? O
   O84        1.0     0.541468     0.838447     0.600799    Uiso  ? O
   O85        1.0     0.952636     0.928108     0.312925    Uiso  ? O
   O86        1.0     0.776388     0.921026     0.297615    Uiso  ? O
   O87        1.0     0.676991     0.632893     0.772558    Uiso  ? O
   O88        1.0     0.792941     0.580309     0.671916    Uiso  ? O
   O89        1.0     0.590786     0.794153     0.777475    Uiso  ? O
   O90        1.0     0.719340     0.979080     0.786233    Uiso  ? O
   O91        1.0     0.607107     0.875622     0.913565    Uiso  ? O
   H1         1.0     0.056059     0.038399     0.530622    Uiso  ? H
   H2         1.0     0.174579     0.273810     0.271136    Uiso  ? H
   H3         1.0     0.151282     0.143082     0.359666    Uiso  ? H
   H4         1.0     0.111378     0.105525     0.043137    Uiso  ? H
   H5         1.0     0.059963     0.538988     0.102995    Uiso  ? H
   H6         1.0     0.098371     0.319921     0.502307    Uiso  ? H
   H7         1.0     0.163838     0.547731     0.672882    Uiso  ? H
   H8         1.0     0.001811     0.788535     0.536093    Uiso  ? H
   H9         1.0     0.168821     0.849456     0.562512    Uiso  ? H
   H10        1.0     0.060473     0.903962     0.633246    Uiso  ? H
   H11        1.0     0.172603     0.688262     0.624498    Uiso  ? H
   H12        1.0     0.010102     0.562955     0.669050    Uiso  ? H
   H13        1.0     0.413505     0.810643     0.501701    Uiso  ? H
   H14        1.0     0.335894     0.149009     0.532189    Uiso  ? H
   H15        1.0     0.476476     0.126739     0.457121    Uiso  ? H
   H16        1.0     0.625010     0.265603     0.676397    Uiso  ? H
   H17        1.0     0.128364     0.398659     0.121932    Uiso  ? H
   H18        1.0     0.268535     0.555058     0.578498    Uiso  ? H
   H19        1.0     0.309220     0.534712     0.704515    Uiso  ? H
   H20        1.0     0.247379     0.748782     0.205372    Uiso  ? H
   H21        1.0     0.455927     0.865703    -0.005895    Uiso  ? H
   H22        1.0     0.427418     0.644765     0.820729    Uiso  ? H
   H23        1.0     0.426450     0.818452     0.864470    Uiso  ? H
   H24        1.0     0.451482     0.724401     0.930514    Uiso  ? H
   H25        1.0     0.324513     0.870149     0.951390    Uiso  ? H
   H26        1.0     0.039916     0.309559     0.272891    Uiso  ? H
   H27        1.0     0.032143     0.229328     0.392842    Uiso  ? H
   H28        1.0     0.846485     0.972395     0.683645    Uiso  ? H
   H29        1.0     0.009567     0.288276     0.680800    Uiso  ? H
   H30        1.0     0.704823     0.371807     0.961739    Uiso  ? H
   H31        1.0     0.793125     0.289939     0.314412    Uiso  ? H
   H32        1.0     0.748311     0.592243     0.511338    Uiso  ? H
   H33        1.0     0.534359     0.477599     0.814475    Uiso  ? H
   H34        1.0     0.866821     0.499654     0.921467    Uiso  ? H
   H35        1.0     0.621804     0.702474     0.113271    Uiso  ? H
   H36        1.0     0.635088     0.893700     0.466958    Uiso  ? H
   H37        1.0     0.853713     0.964470     0.420150    Uiso  ? H
   H38        1.0     0.796636     0.800304     0.381854    Uiso  ? H
   H39        1.0     0.841171     0.653411     0.795367    Uiso  ? H
   H40        1.0     0.802141     0.741199     0.933646    Uiso  ? H
   H41        1.0     0.178948     0.982904     0.054524    Uiso  ? H
   H42        1.0     0.197972     0.916213     0.126345    Uiso  ? H
   H43        1.0     0.298320     0.009151     0.071962    Uiso  ? H
   H44        1.0     0.095565     0.123944     0.909015    Uiso  ? H
   H45        1.0     0.984636     0.028249     0.946464    Uiso  ? H
   H46        1.0     0.018137     0.142986     0.982382    Uiso  ? H
   H47        1.0     0.033827     0.180122     0.161267    Uiso  ? H
   H48        1.0     0.953843     0.157013     0.091233    Uiso  ? H
   H49        1.0     0.949789     0.228688     0.168034    Uiso  ? H
   H50        1.0     0.021310     0.397905     0.000697    Uiso  ? H
   H51        1.0     0.027206     0.305870     0.945502    Uiso  ? H
   H52        1.0     0.133070     0.413426     0.951707    Uiso  ? H
   H53        1.0     0.149996     0.395564     0.358622    Uiso  ? H
   H54        1.0     0.069824     0.433996     0.411826    Uiso  ? H
   H55        1.0     0.198491     0.497990     0.411036    Uiso  ? H
   H56        1.0     0.269175     0.418226     0.860843    Uiso  ? H
   H57        1.0     0.283443     0.314617     0.838191    Uiso  ? H
   H58        1.0     0.196467     0.309987     0.913797    Uiso  ? H
   H59        1.0     0.005012     0.522147     0.484044    Uiso  ? H
   H60        1.0     0.941705     0.580822     0.449046    Uiso  ? H
   H61        1.0     0.008808     0.626193     0.526897    Uiso  ? H
   H62        1.0     0.294602     0.717472     0.419425    Uiso  ? H
   H63        1.0     0.218045     0.618960     0.481865    Uiso  ? H
   H64        1.0     0.231576     0.732612     0.506106    Uiso  ? H
   H65        1.0     0.234263     0.036078     0.394500    Uiso  ? H
   H66        1.0     0.182747     0.949759     0.471161    Uiso  ? H
   H67        1.0     0.106340     0.971681     0.414683    Uiso  ? H
   H68        1.0     0.136008     0.617246     0.970769    Uiso  ? H
   H69        1.0     0.053384     0.530682     0.916304    Uiso  ? H
   H70        1.0     0.040369     0.634880     0.938616    Uiso  ? H
   H71        1.0     0.139351     0.777380     0.950151    Uiso  ? H
   H72        1.0     0.110659     0.826301     0.034239    Uiso  ? H
   H73        1.0     0.202752     0.900123     0.962658    Uiso  ? H
   H74        1.0     0.175719     0.955154     0.706084    Uiso  ? H
   H75        1.0     0.220227     0.898434     0.767538    Uiso  ? H
   H76        1.0     0.300802     0.008491     0.718969    Uiso  ? H
   H77        1.0     0.544388     0.130260     0.225971    Uiso  ? H
   H78        1.0     0.559132     0.030923     0.256615    Uiso  ? H
   H79        1.0     0.445028     0.032874     0.276613    Uiso  ? H
   H80        1.0     0.335586     0.978528     0.516043    Uiso  ? H
   H81        1.0     0.277241     0.875318     0.464676    Uiso  ? H
   H82        1.0     0.357181     0.983905     0.414414    Uiso  ? H
   H83        1.0     0.604909     0.267980     0.279076    Uiso  ? H
   H84        1.0     0.630505     0.175825     0.311370    Uiso  ? H
   H85        1.0     0.659563     0.281247     0.362675    Uiso  ? H
   H86        1.0     0.472555     0.211865     0.815820    Uiso  ? H
   H87        1.0     0.492120     0.314509     0.868236    Uiso  ? H
   H88        1.0     0.401687     0.272311     0.805158    Uiso  ? H
   H89        1.0     0.252460     0.391948     0.184902    Uiso  ? H
   H90        1.0     0.352958     0.448736     0.113229    Uiso  ? H
   H91        1.0     0.260271     0.486108     0.125597    Uiso  ? H
   H92        1.0     0.435154     0.402089     0.184873    Uiso  ? H
   H93        1.0     0.392887     0.337131     0.103823    Uiso  ? H
   H94        1.0     0.500301     0.447560     0.092685    Uiso  ? H
   H95        1.0     0.402147     0.398672     0.900090    Uiso  ? H
   H96        1.0     0.356339     0.382212     0.997705    Uiso  ? H
   H97        1.0     0.479884     0.409754     0.969594    Uiso  ? H
   H98        1.0     0.272762     0.491055     0.986558    Uiso  ? H
   H99        1.0     0.314497     0.575742     0.907952    Uiso  ? H
   H100       1.0     0.327250     0.613842     0.002958    Uiso  ? H
   H101       1.0     0.471850     0.401068     0.713067    Uiso  ? H
   H102       1.0     0.362787     0.390777     0.683074    Uiso  ? H
   H103       1.0     0.404939     0.453867     0.765851    Uiso  ? H
   H104       1.0     0.589962     0.972559     0.039184    Uiso  ? H
   H105       1.0     0.568957     0.904912     0.126481    Uiso  ? H
   H106       1.0     0.645491     0.027437     0.119750    Uiso  ? H
   H107       1.0     0.309180     0.842552     0.699703    Uiso  ? H
   H108       1.0     0.321203     0.806578     0.605397    Uiso  ? H
   H109       1.0     0.371629     0.929897     0.624070    Uiso  ? H
   H110       1.0     0.986092     0.021154     0.079884    Uiso  ? H
   H111       1.0     0.913479     0.923931     0.144683    Uiso  ? H
   H112       1.0     0.924410     0.036922     0.167070    Uiso  ? H
   H113       1.0     0.843613     0.086295     0.357649    Uiso  ? H
   H114       1.0     0.928123     0.103177     0.275636    Uiso  ? H
   H115       1.0     0.836186     0.140836     0.272573    Uiso  ? H
   H116       1.0     0.717378     0.263252     0.786449    Uiso  ? H
   H117       1.0     0.796877     0.213938     0.801904    Uiso  ? H
   H118       1.0     0.788392     0.300929     0.863309    Uiso  ? H
   H119       1.0     0.766365     0.096894     0.598493    Uiso  ? H
   H120       1.0     0.747734    -0.002336     0.543505    Uiso  ? H
   H121       1.0     0.675794    -0.014809     0.634206    Uiso  ? H
   H122       1.0     0.828582     0.249123     0.579196    Uiso  ? H
   H123       1.0     0.895301     0.208465     0.512342    Uiso  ? H
   H124       1.0     0.951162     0.324687     0.545040    Uiso  ? H
   H125       1.0     0.739859     0.200966     0.198354    Uiso  ? H
   H126       1.0     0.670049     0.228254     0.138388    Uiso  ? H
   H127       1.0     0.731946     0.310284     0.206185    Uiso  ? H
   H128       1.0     0.688747     0.047368     0.400718    Uiso  ? H
   H129       1.0     0.772217     0.155630     0.435080    Uiso  ? H
   H130       1.0     0.663949     0.146921     0.403884    Uiso  ? H
   H131       1.0     0.812082     0.384963     0.508487    Uiso  ? H
   H132       1.0     0.722661     0.267213     0.500226    Uiso  ? H
   H133       1.0     0.712713     0.365356     0.460229    Uiso  ? H
   H134       1.0     0.972050     0.682941     0.315619    Uiso  ? H
   H135       1.0     0.858929     0.638357     0.375179    Uiso  ? H
   H136       1.0     0.866327     0.673242     0.278503    Uiso  ? H
   H137       1.0     0.746690     0.568233     0.895956    Uiso  ? H
   H138       1.0     0.639046     0.466092     0.931694    Uiso  ? H
   H139       1.0     0.663913     0.577572     0.970086    Uiso  ? H
   H140       1.0     0.894000     0.456422     0.601342    Uiso  ? H
   H141       1.0     0.805311     0.344821     0.644199    Uiso  ? H
   H142       1.0     0.879245     0.433081     0.702004    Uiso  ? H
   H143       1.0     0.647920     0.333949     0.769212    Uiso  ? H
   H144       1.0     0.610160     0.424117     0.773214    Uiso  ? H
   H145       1.0     0.719237     0.441951     0.809308    Uiso  ? H
   H146       1.0     0.980167     0.702972     0.047134    Uiso  ? H
   H147       1.0     0.954575     0.582383     0.063419    Uiso  ? H
   H148       1.0     0.971903     0.657237     0.140580    Uiso  ? H
   H149       1.0     0.004197     0.777479     0.182367    Uiso  ? H
   H150       1.0     0.000389     0.860378     0.117061    Uiso  ? H
   H151       1.0     0.898671     0.794555     0.185488    Uiso  ? H
   H152       1.0     0.701775     0.722964     0.295635    Uiso  ? H
   H153       1.0     0.734691     0.734297     0.194475    Uiso  ? H
   H154       1.0     0.612039     0.687429     0.233737    Uiso  ? H
   H155       1.0     0.736858     0.773850     0.507368    Uiso  ? H
   H156       1.0     0.676605     0.743307     0.602368    Uiso  ? H
   H157       1.0     0.759286     0.863633     0.575093    Uiso  ? H
   H158       1.0     0.789863     0.805449     0.681335    Uiso  ? H
   H159       1.0     0.859126     0.765047     0.617346    Uiso  ? H
   H160       1.0     0.907465     0.826371     0.699287    Uiso  ? H
   H161       1.0     0.949422     0.701299     0.872349    Uiso  ? H
   H162       1.0     0.042848     0.778665     0.802703    Uiso  ? H
   H163       1.0     0.936718     0.793959     0.825645    Uiso  ? H
   H164       1.0     0.813625     0.852542     0.793297    Uiso  ? H
   H165       1.0     0.733129     0.767244     0.865451    Uiso  ? H
   H166       1.0     0.804099     0.886658     0.888810    Uiso  ? H
