
#======================================================================
# CRYSTAL DATA
#----------------------------------------------------------------------
data_VESTA_phase_1

_chemical_name_common                  '333U-50C-48                           '
_cell_length_a                         16.722229
_cell_length_b                         15.447678
_cell_length_c                         17.318861
_cell_angle_alpha                      89.569115
_cell_angle_beta                       91.016174
_cell_angle_gamma                      118.396233
_cell_volume                           3934.891761
_space_group_name_H-M_alt              'P 1'
_space_group_IT_number                 1

loop_
_space_group_symop_operation_xyz
   'x, y, z'

loop_
   _atom_site_label
   _atom_site_occupancy
   _atom_site_fract_x
   _atom_site_fract_y
   _atom_site_fract_z
   _atom_site_adp_type
   _atom_site_U_iso_or_equiv
   _atom_site_type_symbol
   Si1        1.0     0.024408     0.080832     0.177558    Uiso  ? Si
   Si2        1.0     0.131103     0.213334     0.978171    Uiso  ? Si
   Si3        1.0     0.070816     0.254639     0.457585    Uiso  ? Si
   Si4        1.0     0.072910     0.927589     0.261261    Uiso  ? Si
   Si5        1.0     0.093747     0.984183     0.840985    Uiso  ? Si
   Si6        1.0     0.952752     0.150188     0.903995    Uiso  ? Si
   Si7        1.0     0.972772     0.569813     0.593344    Uiso  ? Si
   Si8        1.0     0.196341     0.552192     0.338599    Uiso  ? Si
   Si9        1.0     0.107875     0.327150     0.804816    Uiso  ? Si
   Si10       1.0     0.045161     0.611189     0.933143    Uiso  ? Si
   Si11       1.0     0.126334     0.615791     0.478336    Uiso  ? Si
   Si12       1.0     0.978872     0.890509     0.589499    Uiso  ? Si
   Si13       1.0     0.145166     0.710616     0.779732    Uiso  ? Si
   Si14       1.0     0.010784     0.867080     0.989574    Uiso  ? Si
   Si15       1.0     0.111863     0.866220     0.712139    Uiso  ? Si
   Si16       1.0     0.548143     0.969826     0.147577    Uiso  ? Si
   Si17       1.0     0.270708     0.044345     0.214989    Uiso  ? Si
   Si18       1.0     0.572771     0.258849     0.022920    Uiso  ? Si
   Si19       1.0     0.295564     0.151608     0.492929    Uiso  ? Si
   Si20       1.0     0.452244     0.121043     0.305943    Uiso  ? Si
   Si21       1.0     0.491628     0.956937     0.739913    Uiso  ? Si
   Si22       1.0     0.543951     0.152336     0.643037    Uiso  ? Si
   Si23       1.0     0.484792     0.359695     0.090729    Uiso  ? Si
   Si24       1.0     0.335494     0.494565     0.284533    Uiso  ? Si
   Si25       1.0     0.398901     0.466886     0.012073    Uiso  ? Si
   Si26       1.0     0.486916     0.290607     0.410091    Uiso  ? Si
   Si27       1.0     0.364922     0.485333     0.553782    Uiso  ? Si
   Si28       1.0     0.523041     0.505915     0.351236    Uiso  ? Si
   Si29       1.0     0.529198     0.308776     0.756448    Uiso  ? Si
   Si30       1.0     0.263279     0.495358     0.915167    Uiso  ? Si
   Si31       1.0     0.516079     0.454085     0.632218    Uiso  ? Si
   Si32       1.0     0.436615     0.596842     0.148962    Uiso  ? Si
   Si33       1.0     0.365854     0.813155     0.224571    Uiso  ? Si
   Si34       1.0     0.531510     0.801822     0.053456    Uiso  ? Si
   Si35       1.0     0.522790     0.659143     0.457347    Uiso  ? Si
   Si36       1.0     0.307606     0.747641     0.553085    Uiso  ? Si
   Si37       1.0     0.513970     0.809702     0.337668    Uiso  ? Si
   Si38       1.0     0.431136     0.648398     0.821474    Uiso  ? Si
   Si39       1.0     0.337168     0.866096     0.847663    Uiso  ? Si
   Si40       1.0     0.442957     0.754401     0.670277    Uiso  ? Si
   Si41       1.0     0.814399     0.997709     0.127130    Uiso  ? Si
   Si42       1.0     0.823839     0.172846     0.024681    Uiso  ? Si
   Si43       1.0     0.874162     0.078473     0.422943    Uiso  ? Si
   Si44       1.0     0.706748     0.195350     0.527051    Uiso  ? Si
   Si45       1.0     0.848594     0.218561     0.301975    Uiso  ? Si
   Si46       1.0     0.782271     0.967197     0.812042    Uiso  ? Si
   Si47       1.0     0.695576     0.220034     0.915475    Uiso  ? Si
   Si48       1.0     0.868952     0.241658     0.644920    Uiso  ? Si
   Si49       1.0     0.893910     0.385701     0.087393    Uiso  ? Si
   Si50       1.0     0.625375     0.491195     0.206467    Uiso  ? Si
   Si51       1.0     0.837339     0.507942     0.976978    Uiso  ? Si
   Si52       1.0     0.826753     0.351622     0.413237    Uiso  ? Si
   Si53       1.0     0.622994     0.396610     0.521944    Uiso  ? Si
   Si54       1.0     0.881098     0.573314     0.360081    Uiso  ? Si
   Si55       1.0     0.822340     0.339053     0.773735    Uiso  ? Si
   Si56       1.0     0.679509     0.469134     0.860718    Uiso  ? Si
   Si57       1.0     0.779439     0.455016     0.642893    Uiso  ? Si
   Si58       1.0     0.792355     0.633625     0.098906    Uiso  ? Si
   Si59       1.0     0.695159     0.856025     0.252476    Uiso  ? Si
   Si60       1.0     0.829450     0.834952     0.029418    Uiso  ? Si
   Si61       1.0     0.878597     0.751744     0.451607    Uiso  ? Si
   Si62       1.0     0.619723     0.807072     0.593501    Uiso  ? Si
   Si63       1.0     0.859648     0.899910     0.336791    Uiso  ? Si
   Si64       1.0     0.793810     0.627789     0.741839    Uiso  ? Si
   Si65       1.0     0.624127     0.789290     0.902248    Uiso  ? Si
   Si66       1.0     0.798858     0.829676     0.687358    Uiso  ? Si
   H1         1.0     0.076163     0.121483     0.106789    Uiso  ? H
   H2         1.0     0.176113     0.258126     0.903787    Uiso  ? H
   H3         1.0     0.126904     0.204706     0.446976    Uiso  ? H
   H4         1.0     0.971551     0.664374     0.583376    Uiso  ? H
   H5         1.0     0.246327     0.658197     0.321277    Uiso  ? H
   H6         1.0     0.077225     0.369954     0.741495    Uiso  ? H
   H7         1.0     0.157234     0.277218     0.773104    Uiso  ? H
   H8         1.0     0.592260     0.231563     0.100740    Uiso  ? H
   H9         1.0     0.220433     0.159949     0.452417    Uiso  ? H
   H10        1.0     0.497816     0.123335     0.232731    Uiso  ? H
   H11        1.0     0.459605     0.118113     0.596065    Uiso  ? H
   H12        1.0     0.250267     0.127717     0.205192    Uiso  ? H
   H13        1.0     0.303308     0.509348     0.598404    Uiso  ? H
   H14        1.0     0.222661     0.524262     0.978240    Uiso  ? H
   H15        1.0     0.540125     0.894694     0.389532    Uiso  ? H
   H16        1.0     0.371840     0.794801     0.856147    Uiso  ? H
   H17        1.0     0.667654     0.107504     0.476838    Uiso  ? H
   H18        1.0     0.809955     0.181355     0.224762    Uiso  ? H
   H19        1.0     0.948171     0.285336     0.297219    Uiso  ? H
   H20        1.0     0.551841     0.946089     0.797412    Uiso  ? H
   H21        1.0     0.079917     0.314726     0.387271    Uiso  ? H
   H22        1.0     0.935321     0.344727     0.624764    Uiso  ? H
   H23        1.0     0.014137     0.563520     0.667823    Uiso  ? H
   H24        1.0     0.821302     0.576333     0.296998    Uiso  ? H
   H25        1.0     0.972000     0.595805     0.331338    Uiso  ? H
   H26        1.0     0.048198     0.517472     0.925615    Uiso  ? H
   H27        1.0     0.628772     0.486724     0.921284    Uiso  ? H
   H28        1.0     0.879922     0.680287     0.141030    Uiso  ? H
   H29        1.0     0.510680     0.581581     0.179292    Uiso  ? H
   H30        1.0     0.626051     0.903217     0.574926    Uiso  ? H
   H31        1.0     0.891024     0.910469     0.257032    Uiso  ? H
   H32        1.0     0.967541     0.765251     0.958241    Uiso  ? H
   H33        1.0     0.814169     0.842620     0.946538    Uiso  ? H
   H34        1.0     0.175112     0.088042     0.024877    Uiso  ? H
   H35        1.0     0.218555     0.192238     0.086803    Uiso  ? H
   H36        1.0     0.270592     0.200361    -0.003389    Uiso  ? H
   H37        1.0     0.097703     0.350479     0.005010    Uiso  ? H
   H38        1.0     0.186138     0.356744     0.067060    Uiso  ? H
   H39        1.0     0.070531     0.269857     0.084594    Uiso  ? H
   H40        1.0     0.049442     0.344810     0.566635    Uiso  ? H
   H41        1.0     0.160312     0.408627     0.530237    Uiso  ? H
   H42        1.0     0.131404     0.306204     0.592200    Uiso  ? H
   H43        1.0     0.930203     0.765184     0.256492    Uiso  ? H
   H44        1.0     0.025868     0.756718     0.294271    Uiso  ? H
   H45        1.0     0.015354     0.770398     0.193391    Uiso  ? H
   H46        1.0     0.155912     0.048922     0.360983    Uiso  ? H
   H47        1.0     0.098103     0.929193     0.401347    Uiso  ? H
   H48        1.0     0.039063    -0.003316     0.381224    Uiso  ? H
   H49        1.0     0.981234     0.001253     0.754371    Uiso  ? H
   H50        1.0     0.095237     0.071313     0.722136    Uiso  ? H
   H51        1.0     0.057655     0.114908     0.799403    Uiso  ? H
   H52        1.0     0.259345     0.063163     0.824379    Uiso  ? H
   H53        1.0     0.233669     0.049331     0.923986    Uiso  ? H
   H54        1.0     0.228764     0.144710     0.870262    Uiso  ? H
   H55        1.0     0.072483     0.404663     0.276033    Uiso  ? H
   H56        1.0     0.149519     0.486596     0.206736    Uiso  ? H
   H57        1.0     0.068135     0.513819     0.249418    Uiso  ? H
   H58        1.0     0.153068     0.768666    -0.007763    Uiso  ? H
   H59        1.0     0.187954     0.677291     0.006329    Uiso  ? H
   H60        1.0     0.102622     0.678305     0.065468    Uiso  ? H
   H61        1.0     0.079531     0.742945     0.462799    Uiso  ? H
   H62        1.0     0.101303     0.709316     0.371188    Uiso  ? H
   H63        1.0     0.193074     0.789620     0.431267    Uiso  ? H
   H64        1.0     0.007708     0.034982     0.511224    Uiso  ? H
   H65        1.0     0.110336     0.034157     0.534769    Uiso  ? H
   H66        1.0     0.055721     0.071210     0.605113    Uiso  ? H
   H67        1.0     0.189430     0.625858     0.681389    Uiso  ? H
   H68        1.0     0.119505     0.543004     0.752775    Uiso  ? H
   H69        1.0     0.235427     0.624551     0.774211    Uiso  ? H
   H70        1.0     0.172995     0.914329     0.013968    Uiso  ? H
   H71        1.0     0.102810     0.836737     0.088133    Uiso  ? H
   H72        1.0     0.127666     0.961048     0.085232    Uiso  ? H
   H73        1.0     0.688376     0.053720     0.225653    Uiso  ? H
   H74        1.0     0.592865     0.020207     0.284683    Uiso  ? H
   H75        1.0     0.628728     0.122972     0.221809    Uiso  ? H
   H76        1.0     0.389645     0.043153     0.131665    Uiso  ? H
   H77        1.0     0.296772     0.038034     0.075580    Uiso  ? H
   H78        1.0     0.286000     0.932179     0.124328    Uiso  ? H
   H79        1.0     0.529318    -0.002315     0.010583    Uiso  ? H
   H80        1.0     0.617879     0.103682     0.054505    Uiso  ? H
   H81        1.0     0.502059     0.072931     0.070010    Uiso  ? H
   H82        1.0     0.413197     0.123339     0.019090    Uiso  ? H
   H83        1.0     0.468856     0.125213     0.932950    Uiso  ? H
   H84        1.0     0.433930     0.215317     0.949309    Uiso  ? H
   H85        1.0     0.328572     0.011734     0.512850    Uiso  ? H
   H86        1.0     0.279064     0.007389     0.419847    Uiso  ? H
   H87        1.0     0.209759     0.969111     0.502608    Uiso  ? H
   H88        1.0     0.557357     0.098436     0.391443    Uiso  ? H
   H89        1.0     0.462124     0.982216     0.371434    Uiso  ? H
   H90        1.0     0.453595     0.063005     0.439598    Uiso  ? H
   H91        1.0     0.346121     0.167343     0.629599    Uiso  ? H
   H92        1.0     0.236728     0.159759     0.621953    Uiso  ? H
   H93        1.0     0.335292     0.271594     0.599562    Uiso  ? H
   H94        1.0     0.467408     0.216045     0.166861    Uiso  ? H
   H95        1.0     0.366197     0.193564     0.114429    Uiso  ? H
   H96        1.0     0.397643     0.265663     0.200011    Uiso  ? H
   H97        1.0     0.312155     0.362449     0.194686    Uiso  ? H
   H98        1.0     0.206856     0.359215     0.213527    Uiso  ? H
   H99        1.0     0.257415     0.314947     0.284045    Uiso  ? H
   H100       1.0     0.258246     0.318002     0.511063    Uiso  ? H
   H101       1.0     0.354699     0.371393     0.451080    Uiso  ? H
   H102       1.0     0.268008     0.406590     0.440186    Uiso  ? H
   H103       1.0     0.412693     0.162227     0.825456    Uiso  ? H
   H104       1.0     0.366055     0.209391     0.754302    Uiso  ? H
   H105       1.0     0.401836     0.269457     0.844626    Uiso  ? H
   H106       1.0     0.328011     0.689510     0.116334    Uiso  ? H
   H107       1.0     0.259948     0.749204     0.117504    Uiso  ? H
   H108       1.0     0.238190     0.652528     0.183126    Uiso  ? H
   H109       1.0     0.249009     0.781379     0.317333    Uiso  ? H
   H110       1.0     0.238427     0.849892     0.240394    Uiso  ? H
   H111       1.0     0.321040     0.909971     0.313899    Uiso  ? H
   H112       1.0     0.357699     0.742046     0.420228    Uiso  ? H
   H113       1.0     0.435351     0.848442     0.472871    Uiso  ? H
   H114       1.0     0.335714     0.843017     0.431745    Uiso  ? H
   H115       1.0     0.278845     0.825854     0.667188    Uiso  ? H
   H116       1.0     0.231873     0.843449     0.579908    Uiso  ? H
   H117       1.0     0.350347     0.914698     0.599845    Uiso  ? H
   H118       1.0     0.236483     0.976035     0.624885    Uiso  ? H
   H119       1.0     0.279025     0.974002     0.719019    Uiso  ? H
   H120       1.0     0.217798     0.039648     0.700575    Uiso  ? H
   H121       1.0     0.670982     0.581562     0.631298    Uiso  ? H
   H122       1.0     0.608002     0.624821     0.685026    Uiso  ? H
   H123       1.0     0.599463     0.618769     0.582923    Uiso  ? H
   H124       1.0     0.393234     0.499936     0.749319    Uiso  ? H
   H125       1.0     0.449452     0.498739     0.836499    Uiso  ? H
   H126       1.0     0.512642     0.571429     0.757493    Uiso  ? H
   H127       1.0     0.394348     0.736755     0.971857    Uiso  ? H
   H128       1.0     0.469066     0.860803     0.949412    Uiso  ? H
   H129       1.0     0.400904     0.831665     0.033495    Uiso  ? H
   H130       1.0     0.289337     0.873394     0.978861    Uiso  ? H
   H131       1.0     0.307033     0.978803     0.924004    Uiso  ? H
   H132       1.0     0.400799     0.970110     0.965212    Uiso  ? H
   H133       1.0     0.017762     0.133973     0.308173    Uiso  ? H
   H134       1.0     0.058728     0.236305     0.244155    Uiso  ? H
   H135       1.0     0.131904     0.189114     0.277283    Uiso  ? H
   H136       1.0     0.557403     0.060476     0.901103    Uiso  ? H
   H137       1.0     0.632063     0.091094     0.822292    Uiso  ? H
   H138       1.0     0.561233     0.146777     0.829576    Uiso  ? H
   H139       1.0     0.731722     0.083606     0.757613    Uiso  ? H
   H140       1.0     0.663183     0.959385     0.727398    Uiso  ? H
   H141       1.0     0.769744     0.032747     0.684715    Uiso  ? H
   H142       1.0     0.000919     0.212323     0.649311    Uiso  ? H
   H143       1.0     0.903179     0.103745     0.620027    Uiso  ? H
   H144       1.0     0.920852     0.139607     0.719194    Uiso  ? H
   H145       1.0     0.911876     0.419791     0.226832    Uiso  ? H
   H146       1.0     0.795518     0.366664     0.199668    Uiso  ? H
   H147       1.0     0.870263     0.492388     0.178463    Uiso  ? H
   H148       1.0     0.050772     0.525696     0.094503    Uiso  ? H
   H149       1.0     0.040828     0.442395     0.020141    Uiso  ? H
   H150       1.0     0.045584     0.411573     0.118306    Uiso  ? H
   H151       1.0     0.990364     0.400130     0.413900    Uiso  ? H
   H152       1.0     0.922119     0.283926     0.458289    Uiso  ? H
   H153       1.0     0.949713     0.394208     0.508299    Uiso  ? H
   H154       1.0     0.711779     0.419092     0.271183    Uiso  ? H
   H155       1.0     0.667711     0.364200     0.179820    Uiso  ? H
   H156       1.0     0.595255     0.330960     0.261053    Uiso  ? H
   H157       1.0     0.982860     0.439338     0.745536    Uiso  ? H
   H158       1.0     0.967274     0.397865     0.843131    Uiso  ? H
   H159       1.0     0.948053     0.497786     0.814479    Uiso  ? H
   H160       1.0     0.511035     0.623730     0.957800    Uiso  ? H
   H161       1.0     0.536835     0.527768     0.934020    Uiso  ? H
   H162       1.0     0.560231     0.579043     0.027811    Uiso  ? H
   H163       1.0     0.755166     0.757961     0.196049    Uiso  ? H
   H164       1.0     0.656373     0.738543     0.142994    Uiso  ? H
   H165       1.0     0.647384     0.684314     0.236042    Uiso  ? H
   H166       1.0     0.665123     0.551302     0.455904    Uiso  ? H
   H167       1.0     0.695945     0.474802     0.402117    Uiso  ? H
   H168       1.0     0.762730     0.540833     0.483571    Uiso  ? H
   H169       1.0     0.754027     0.675846     0.546121    Uiso  ? H
   H170       1.0     0.713777     0.690666     0.453171    Uiso  ? H
   H171       1.0     0.776442     0.793745     0.512555    Uiso  ? H
   H172       1.0     0.815392     0.965645     0.531633    Uiso  ? H
   H173       1.0     0.728674     0.945348     0.461837    Uiso  ? H
   H174       1.0     0.765543     0.044941     0.528699    Uiso  ? H
   H175       1.0     0.913817     0.726401     0.837048    Uiso  ? H
   H176       1.0     0.957258     0.706285     0.750269    Uiso  ? H
   H177       1.0     0.907778     0.610875     0.818796    Uiso  ? H
   H178       1.0     0.625540     0.645913     0.843266    Uiso  ? H
   H179       1.0     0.684101     0.673376     0.933255    Uiso  ? H
   H180       1.0     0.736362     0.746166     0.851181    Uiso  ? H
   C1         1.0     0.205313     0.168209     0.026362    Uiso  ? C
   C2         1.0     0.120816     0.306479     0.039309    Uiso  ? C
   C3         1.0     0.105960     0.335131     0.545127    Uiso  ? C
   C4         1.0     0.003262     0.792388     0.250337    Uiso  ? C
   C5         1.0     0.091313    -0.020131     0.360180    Uiso  ? C
   C6         1.0     0.051850     0.047817     0.773258    Uiso  ? C
   C7         1.0     0.214683     0.067738     0.867777    Uiso  ? C
   C8         1.0     0.114137     0.482531     0.260571    Uiso  ? C
   C9         1.0     0.129300     0.691255     0.006671    Uiso  ? C
   C10        1.0     0.125883     0.724367     0.431246    Uiso  ? C
   C11        1.0     0.044427     0.019551     0.557814    Uiso  ? C
   C12        1.0     0.174809     0.617695     0.743302    Uiso  ? C
   C13        1.0     0.113341     0.897280     0.049001    Uiso  ? C
   C14        1.0     0.620982     0.048501     0.227651    Uiso  ? C
   C15        1.0     0.315718     0.012406     0.128533    Uiso  ? C
   C16        1.0     0.549058     0.043266     0.062686    Uiso  ? C
   C17        1.0     0.462378     0.171675     0.976948    Uiso  ? C
   C18        1.0     0.276778     0.023045     0.481294    Uiso  ? C
   C19        1.0     0.482941     0.059470     0.384270    Uiso  ? C
   C20        1.0     0.304093     0.191208     0.595644    Uiso  ? C
   C21        1.0     0.423870     0.247680     0.148309    Uiso  ? C
   C22        1.0     0.271514     0.371601     0.239893    Uiso  ? C
   C23        1.0     0.305872     0.386096     0.482194    Uiso  ? C
   C24        1.0     0.418042     0.229951     0.800301    Uiso  ? C
   C25        1.0     0.292586     0.716011     0.154098    Uiso  ? C
   C26        1.0     0.288002     0.843233     0.278729    Uiso  ? C
   C27        1.0     0.363004     0.798980     0.460480    Uiso  ? C
   C28        1.0     0.291440     0.841434     0.605610    Uiso  ? C
   C29        1.0     0.221667     0.972633     0.686307    Uiso  ? C
   C30        1.0     0.605853     0.581621     0.634739    Uiso  ? C
   C31        1.0     0.449358     0.545870     0.789045    Uiso  ? C
   C32        1.0     0.440472     0.808739    -0.002801    Uiso  ? C
   C33        1.0     0.334209     0.928198     0.937307    Uiso  ? C
   C34        1.0     0.062152     0.168929     0.258993    Uiso  ? C
   C35        1.0     0.601595     0.120411     0.862899    Uiso  ? C
   C36        1.0     0.733127     0.016768     0.739159    Uiso  ? C
   C37        1.0     0.928072     0.166531     0.659691    Uiso  ? C
   C38        1.0     0.864421     0.418381     0.181543    Uiso  ? C
   C39        1.0     0.019155     0.447678     0.078359    Uiso  ? C
   C40        1.0     0.932429     0.359150     0.451706    Uiso  ? C
   C41        1.0     0.652141     0.392144     0.232438    Uiso  ? C
   C42        1.0     0.941090     0.426647     0.796748    Uiso  ? C
   C43        1.0     0.511490     0.557301     0.979031    Uiso  ? C
   C44        1.0     0.686628     0.749729     0.200896    Uiso  ? C
   C45        1.0     0.693576     0.501030     0.460130    Uiso  ? C
   C46        1.0     0.770010     0.722603     0.494936    Uiso  ? C
   C47        1.0     0.787727     0.002306     0.493228    Uiso  ? C
   C48        1.0     0.902531     0.672190     0.791933    Uiso  ? C
   C49        1.0     0.671788     0.705991     0.881104    Uiso  ? C
   O1         1.0     0.037142     0.984872     0.200254    Uiso  ? O
   O2         1.0     0.026280     0.126508     0.950514    Uiso  ? O
   O3         1.0     0.013148     0.245255     0.846952    Uiso  ? O
   O4         1.0     0.029608     0.554537     0.522930    Uiso  ? O
   O5         1.0     0.139689     0.541064     0.418462    Uiso  ? O
   O6         1.0     0.071441     0.666028     0.849146    Uiso  ? O
   O7         1.0     0.030819     0.943884     0.917921    Uiso  ? O
   O8         1.0     0.033123     0.857375     0.651164    Uiso  ? O
   O9         1.0     0.106509     0.756849     0.711620    Uiso  ? O
   O10        1.0     0.086403     0.884794     0.799066    Uiso  ? O
   O11        1.0     0.174505     0.947383     0.234276    Uiso  ? O
   O12        1.0     0.341893     0.070527     0.289345    Uiso  ? O
   O13        1.0     0.539224     0.060140     0.693173    Uiso  ? O
   O14        1.0     0.564655     0.360582     0.035947    Uiso  ? O
   O15        1.0     0.273435     0.513918     0.348204    Uiso  ? O
   O16        1.0     0.406044     0.368617     0.038215    Uiso  ? O
   O17        1.0     0.389529     0.227780     0.448927    Uiso  ? O
   O18        1.0     0.488814     0.236985     0.330001    Uiso  ? O
   O19        1.0     0.426739     0.498296     0.323735    Uiso  ? O
   O20        1.0     0.502664     0.400478     0.387833    Uiso  ? O
   O21        1.0     0.554643     0.240585     0.700074    Uiso  ? O
   O22        1.0     0.180276     0.422959     0.856921    Uiso  ? O
   O23        1.0     0.316146     0.434993     0.947769    Uiso  ? O
   O24        1.0     0.416404     0.448265     0.618261    Uiso  ? O
   O25        1.0     0.516163     0.393526     0.709691    Uiso  ? O
   O26        1.0     0.368311     0.583943     0.220221    Uiso  ? O
   O27        1.0     0.371095     0.511777     0.086332    Uiso  ? O
   O28        1.0     0.441573     0.907762     0.175778    Uiso  ? O
   O29        1.0     0.482360     0.703075     0.107218    Uiso  ? O
   O30        1.0     0.583648     0.893341     0.114013    Uiso  ? O
   O31        1.0     0.437056     0.586759     0.508995    Uiso  ? O
   O32        1.0     0.565198     0.594487     0.416097    Uiso  ? O
   O33        1.0     0.207637     0.649097     0.543211    Uiso  ? O
   O34        1.0     0.421741     0.781161     0.288137    Uiso  ? O
   O35        1.0     0.494688     0.712768     0.389282    Uiso  ? O
   O36        1.0     0.340505     0.599457     0.877484    Uiso  ? O
   O37        1.0     0.233673     0.808109     0.814180    Uiso  ? O
   O38        1.0     0.401438     0.948680     0.782806    Uiso  ? O
   O39        1.0     0.369918     0.707558     0.600379    Uiso  ? O
   O40        1.0     0.399431     0.693929     0.748691    Uiso  ? O
   O41        1.0     0.466465     0.869308     0.676889    Uiso  ? O
   O42        1.0     0.919841     0.055462     0.155007    Uiso  ? O
   O43        1.0     0.905155     0.188094     0.966858    Uiso  ? O
   O44        1.0     0.790500     0.072589     0.076223    Uiso  ? O
   O45        1.0     0.963634     0.166696     0.465337    Uiso  ? O
   O46        1.0     0.630240     0.188642     0.586631    Uiso  ? O
   O47        1.0     0.832351     0.125724     0.358824    Uiso  ? O
   O48        1.0     0.873166     0.053722     0.858145    Uiso  ? O
   O49        1.0     0.740854     0.167804     0.971230    Uiso  ? O
   O50        1.0     0.659477     0.281564     0.968687    Uiso  ? O
   O51        1.0     0.791961     0.195447     0.575139    Uiso  ? O
   O52        1.0     0.858152     0.266106     0.083101    Uiso  ? O
   O53        1.0     0.536060     0.454027     0.148556    Uiso  ? O
   O54        1.0     0.598322     0.534535     0.283358    Uiso  ? O
   O55        1.0     0.941152     0.588320     0.954389    Uiso  ? O
   O56        1.0     0.842936     0.415048     0.016773    Uiso  ? O
   O57        1.0     0.743338     0.295303     0.474500    Uiso  ? O
   O58        1.0     0.798884     0.281032     0.335004    Uiso  ? O
   O59        1.0     0.569318     0.297359     0.466984    Uiso  ? O
   O60        1.0     0.535317     0.401517     0.558595    Uiso  ? O
   O61        1.0     0.835251     0.459797     0.392968    Uiso  ? O
   O62        1.0     0.767804     0.294196     0.853250    Uiso  ? O
   O63        1.0     0.817535     0.246436     0.723923    Uiso  ? O
   O64        1.0     0.612934     0.362412     0.819977    Uiso  ? O
   O65        1.0     0.772959     0.475656     0.899236    Uiso  ? O
   O66        1.0     0.867629     0.477056     0.590113    Uiso  ? O
   O67        1.0     0.685803     0.391450     0.593909    Uiso  ? O
   O68        1.0     0.776476     0.393944     0.720930    Uiso  ? O
   O69        1.0     0.711848     0.577576     0.161125    Uiso  ? O
   O70        1.0     0.794990     0.556225     0.036711    Uiso  ? O
   O71        1.0     0.752362     0.959742     0.204486    Uiso  ? O
   O72        1.0     0.596219     0.840916     0.277270    Uiso  ? O
   O73        1.0     0.937900     0.876868     0.047205    Uiso  ? O
   O74        1.0     0.775390     0.717816     0.053999    Uiso  ? O
   O75        1.0     0.794772     0.901263     0.076151    Uiso  ? O
   O76        1.0     0.895493     0.659646     0.423418    Uiso  ? O
   O77        1.0     0.958630     0.817342     0.514832    Uiso  ? O
   O78        1.0     0.600028     0.744117     0.513102    Uiso  ? O
   O79        1.0     0.535660     0.748001     0.653080    Uiso  ? O
   O80        1.0     0.750102     0.863099     0.335092    Uiso  ? O
   O81        1.0     0.886824     0.821391     0.376523    Uiso  ? O
   O82        1.0     0.909142     0.006802     0.380831    Uiso  ? O
   O83        1.0     0.707625     0.555231     0.795328    Uiso  ? O
   O84        1.0     0.789897     0.562876     0.665030    Uiso  ? O
   O85        1.0     0.521292     0.742886     0.860071    Uiso  ? O
   O86        1.0     0.698376     0.900292     0.871361    Uiso  ? O
   O87        1.0     0.606396     0.798452     0.994620    Uiso  ? O
   O88        1.0     0.886243     0.878971     0.630869    Uiso  ? O
   O89        1.0     0.712352     0.822839     0.637448    Uiso  ? O
   O90        1.0     0.779299     0.720592     0.713049    Uiso  ? O
   O91        1.0     0.815348     0.896316     0.765245    Uiso  ? O
