LAMMPS (2 Aug 2023 - Update 2)
# Initialization
units           real
dimension       3
boundary        p p p
atom_style      full
timestep        0.5   # fs

# Define MD parameters
variable nevery equal 10                  # sampling interval
variable nrepeat equal 10                 # number of samples
variable nfreq equal 10*10
variable nthermo equal 100
# 1 ps : 1e3 fs / 0.5 fs = 2e3 steps
variable nequil equal 20*100
variable nrun equal 20*100
variable temp equal 300.0                # temperature of initial sample
variable tdamp equal 50.0                 # time constant for thermostat
variable seed equal 123457                # seed for thermostat
variable ufac equal 1.01325e-4         # pressure unit conversion, from atm to Gpa
variable up equal 0.01                  # the deformation magnitude 2.0e-2

# Read the initial sctructure
# box tilt large
variable structure string 333-EXP-1-vasp-an
read_data       333-EXP-1-vasp-an.data
Reading data file ...
  triclinic box = (-0.16850835 0.040044717 0.65076706) to (14.917208 13.391755 15.958833) with tilt (-7.8556212 0.0034935965 -0.84834476)
  reading atoms ...
  271 atoms
  reading velocities ...
  271 velocities
Finding 1-2 1-3 1-4 neighbors ...
     0 = max # of 1-2 neighbors
     0 = max # of 1-3 neighbors
     0 = max # of 1-4 neighbors
     1 = max # of special neighbors

# Energy minimization
print "*****Minimization starts.*****"
*****Minimization starts.*****
velocity        all create 300 123457 dist gaussian
minimize 1.0e-6 1.0e-6 100 1000
Step          Temp          E_pair         E_mol          TotEng         Press
0   300            0              0              241.44561      3579.5546
Loop time of 6.99701e-05 on 8 procs for 1 steps with 271 atoms

Minimization stats:
  Stopping criterion = search direction is not downhill
  Energy initial, next-to-last, final =
  Force two-norm initial, final = 0 0
  Force max component initial, final = 0 0
  Final line search alpha, max atom move = 0 0
  Iterations, force evaluations = 1 0

min_style cg

# Equilibration
include ff.mod.lmp
# Setup forcefield, system
# undefine any fix ave/* fix before using reset_timestep
if "$(is_defined(fix,avgp))" then "unfix avgp"
reset_timestep 0

# Assign the force field
pair_style reaxff NULL safezone 3.0 mincap 150
# pair_coeff * * CHONSSi.ff O Si
# pair_coeff * * CHOSiNa.ff O Si
# pair_coeff * * SiOCHN_2018.ff O Si
# pair_coeff * * PDMSDecomp.ff Si O
pair_coeff * * CHONSi.ff C H O Si
# pair_coeff * * CHOFe.ff O Si

# charge method for reaxff
fix myqeq all qeq/reaxff 1 0.0 10.0 1.0e-6 reaxff maxiter 400
# Setup neighbor style
neighbor        2 bin
neigh_modify    every 10 delay 0 check no

# Setup output
fix avgp all ave/time  10 10 100 c_thermo_press mode vector
thermo		100
thermo_style custom step temp pe press f_avgp[1] vol
thermo_modify norm no

# equilibration
fix 4 all nvt temp 300 300 50

thermo_style custom step temp pe press f_avgp[1] density vol
run 2000

CITE-CITE-CITE-CITE-CITE-CITE-CITE-CITE-CITE-CITE-CITE-CITE-CITE

Your simulation uses code contributions which should be cited:

- pair reaxff command: doi:10.1016/j.parco.2011.08.005

@Article{Aktulga12,
 author = {H. M. Aktulga and J. C. Fogarty and S. A. Pandit and A. Y. Grama},
 title = {Parallel Reactive Molecular Dynamics: {N}umerical Methods and Algorithmic Techniques},
 journal = {Parallel Computing},
 year =    2012,
 volume =  38,
 number =  {4--5},
 pages =   {245--259}
}

- fix qeq/reaxff command: doi:10.1016/j.parco.2011.08.005

@Article{Aktulga12,
 author = {H. M. Aktulga and J. C. Fogarty and S. A. Pandit and A. Y. Grama},
 title = {Parallel Reactive Molecular Dynamics: {N}umerical Methods and Algorithmic Techniques},
 journal = {Parallel Computing},
 year =    2012,
 volume =  38,
 pages =   {245--259}
}

CITE-CITE-CITE-CITE-CITE-CITE-CITE-CITE-CITE-CITE-CITE-CITE-CITE

Step          Temp          PotEng         Press        f_avgp[1]       Density         Volume
0   300           -31976.978      6305.2198      0              1.6358887      3083.3525
Averages over the last 11 of 21 rows, steps 1000 to 2000:
Temp PotEng Press f_avgp[1] Density Volume
294.888 -31986.5 -1431.79 1591.89 1.63589 3083.35
Loop time of 77.5079 on 8 procs for 2000 steps with 271 atoms

# Save the optimized structure
write_data 333-EXP-1-vasp-an_opt.data
System init for write_data ...

# Save initial pressure, box size
variable pxx0 equal f_avgp[1]
variable pyy0 equal f_avgp[2]
variable pzz0 equal f_avgp[3]
variable pxy0 equal f_avgp[4]
variable pxz0 equal f_avgp[5]
variable pyz0 equal f_avgp[6]

# use tmp to save initial box length
variable tmp equal lx
variable lx0 equal 15.0857166972957
variable tmp equal ly
variable ly0 equal 13.3517105651832
variable tmp equal lz
variable lz0 equal 15.3080658871341

# define the derivatives, w.r.t. strain tensor
# Constants uses $, variables use v_
variable d1 equal -(v_pxx1-2451.23025475289)/(v_delta/v_len0)*0.000101325
variable d2 equal -(v_pyy1-607.701099486294)/(v_delta/v_len0)*0.000101325
variable d3 equal -(v_pzz1-911.668707480523)/(v_delta/v_len0)*0.000101325
variable d4 equal -(v_pyz1-3258.03570337743)/(v_delta/v_len0)*0.000101325*0.5
variable d5 equal -(v_pxz1-1602.95701679891)/(v_delta/v_len0)*0.000101325*0.5
variable d6 equal -(v_pxy1-1067.42562309102)/(v_delta/v_len0)*0.000101325*0.5

# Write restart
write_restart equil.res
System init for write_restart ...

# dir: direction
# uxx Perturbation
variable dir equal 1
include displace.mod.lmp
# Find which reference length to use
variable len0 equal 15.0857166972957

# Reset box and simulation parameters
clear
# box tilt large
read_restart equil.res
Reading restart file ...
  restart file = 2 Aug 2023, LAMMPS = 2 Aug 2023
  restoring atom style full from restart
  triclinic box = (-0.16850835 0.040044717 0.65076706) to (14.917208 13.391755 15.958833) with tilt (-7.8556212 0.0034935965 -0.84834476)
  pair style reaxff stores no restart info
  271 atoms
Finding 1-2 1-3 1-4 neighbors ...
     0 = max # of 1-2 neighbors
     0 = max # of 1-3 neighbors
     0 = max # of 1-4 neighbors
     1 = max # of special neighbors
  read_restart CPU = 0.003 seconds

# Negative deformation
variable delta equal -0.01*15.0857166972957
variable deltaxy equal -0.01*xy
variable deltaxz equal -0.01*xz
variable deltayz equal -0.01*yz
fix deform_n all deform 100 x delta 0 -0.150857166972957 xy delta 0.0785562116101559 xz delta -3.49359646871449e-05 remap x units box

# Run MD for Negative deformation
*****Negative-deform 1 starts.*****
include ff.mod.lmp
# Setup forcefield, system
# undefine any fix ave/* fix before using reset_timestep
if "$(is_defined(fix,avgp))" then "unfix avgp"
reset_timestep 0

# Assign the force field
pair_style reaxff NULL safezone 3.0 mincap 150
# pair_coeff * * CHONSSi.ff O Si
# pair_coeff * * CHOSiNa.ff O Si
# pair_coeff * * SiOCHN_2018.ff O Si
# pair_coeff * * PDMSDecomp.ff Si O
pair_coeff * * CHONSi.ff C H O Si
# pair_coeff * * CHOFe.ff O Si

# charge method for reaxff
fix myqeq all qeq/reaxff 1 0.0 10.0 1.0e-6 reaxff maxiter 400
# Setup neighbor style
neighbor        2 bin
neigh_modify    every 10 delay 0 check no

# Setup output
fix avgp all ave/time  10 10 100 c_thermo_press mode vector
thermo		100
thermo_style custom step temp pe press f_avgp[1] vol
thermo_modify norm no

# equilibration
fix 4 all nvt temp 300 300 50
  fix style: nvt, fix ID: 4

# save trajectory
dump dump_neg1 all custom 100 dump/neg_deform1.lammpstrj id type x y z
variable dir1 equal 1
run 2000
All restart file global fix info was re-assigned
Step          Temp          PotEng         Press        f_avgp[1]        Volume
0   299.85537     -31976.691      856.66901      0              3083.3525
Averages over the last 11 of 21 rows, steps 1000 to 2000:
Temp PotEng Press f_avgp[1] Volume
307.508 -31978.5 3555.74 4297.21 3060.23
Loop time of 79.2712 on 8 procs for 2000 steps with 271 atoms

# Obtain new stress tensor Negative deformation
variable pxx1 equal f_avgp[1]
variable pyy1 equal f_avgp[2]
variable pzz1 equal f_avgp[3]
variable pxy1 equal f_avgp[4]
variable pxz1 equal f_avgp[5]
variable pyz1 equal f_avgp[6]

# Compute elastic constant from pressure
# d1 = -[pxx1-pxx0]/[(]v_delta/v_len0] defined in input script
variable C1neg equal 31.7814887547785
variable C2neg equal -31.9108191338191
variable C3neg equal -37.3511245699352
variable C4neg equal 10.3540651557264
variable C5neg equal 0.727099251557099
variable C6neg equal -0.132326277538535

# Reset box and simulation parameters
clear
# box tilt large
read_restart equil.res
Reading restart file ...
  restart file = 2 Aug 2023, LAMMPS = 2 Aug 2023
  restoring atom style full from restart
  triclinic box = (-0.16850835 0.040044717 0.65076706) to (14.917208 13.391755 15.958833) with tilt (-7.8556212 0.0034935965 -0.84834476)
  pair style reaxff stores no restart info
  271 atoms
Finding 1-2 1-3 1-4 neighbors ...
     0 = max # of 1-2 neighbors
     0 = max # of 1-3 neighbors
     0 = max # of 1-4 neighbors
     1 = max # of special neighbors
  read_restart CPU = 0.003 seconds

# Positive deformation
variable delta equal 0.01*15.0857166972957
variable deltaxy equal 0.01*xy
variable deltaxz equal 0.01*xz
variable deltayz equal 0.01*yz
fix deform_p all deform 100 x delta 0 0.150857166972957 xy delta -0.0785562116101559 xz delta 3.49359646871449e-05 remap x units box

# Run deformation MD
*****Positive-deform 1 starts.*****
include ff.mod.lmp
# Setup forcefield, system
# undefine any fix ave/* fix before using reset_timestep
if "$(is_defined(fix,avgp))" then "unfix avgp"
reset_timestep 0

# Assign the force field
pair_style reaxff NULL safezone 3.0 mincap 150
# pair_coeff * * CHONSSi.ff O Si
# pair_coeff * * CHOSiNa.ff O Si
# pair_coeff * * SiOCHN_2018.ff O Si
# pair_coeff * * PDMSDecomp.ff Si O
pair_coeff * * CHONSi.ff C H O Si
# pair_coeff * * CHOFe.ff O Si

# charge method for reaxff
fix myqeq all qeq/reaxff 1 0.0 10.0 1.0e-6 reaxff maxiter 400
# Setup neighbor style
neighbor        2 bin
neigh_modify    every 10 delay 0 check no

# Setup output
fix avgp all ave/time  10 10 100 c_thermo_press mode vector
thermo		100
thermo_style custom step temp pe press f_avgp[1] vol
thermo_modify norm no

# equilibration
fix 4 all nvt temp 300 300 50
  fix style: nvt, fix ID: 4

# save trajectory
dump dump_pos1 all custom 100 dump/pos_deform1.lammpstrj id type x y z
variable dir1 equal 1
run 2000
All restart file global fix info was re-assigned
Step          Temp          PotEng         Press        f_avgp[1]        Volume
0   299.85537     -31976.691      856.66901      0              3083.3525
Averages over the last 11 of 21 rows, steps 1000 to 2000:
Temp PotEng Press f_avgp[1] Volume
294.931 -31984.4 1817.85 -2858.97 3106.48
Loop time of 80.0888 on 8 procs for 2000 steps with 271 atoms

# Obtain new stress tensor
variable pxx1 equal f_avgp[1]
variable pyy1 equal f_avgp[2]
variable pzz1 equal f_avgp[3]
variable pxy1 equal f_avgp[4]
variable pxz1 equal f_avgp[5]
variable pyz1 equal f_avgp[6]

# Compute elastic constant from pressure tensor
# d1 = -[pxx1-pxx0]/[(]v_delta/v_len0] defined in input script
variable C1pos equal 78.4910996080344
variable C2pos equal 67.312728480287
variable C3pos equal 58.548564428883
variable C4pos equal 13.5292234737779
variable C5pos equal 11.9639860398154
variable C6pos equal -3.82531032463427

# Combine positive and negative
variable C11 equal 0.5*(31.7814887547785+78.4910996080344)
variable C21 equal 0.5*(-31.9108191338191+67.312728480287)
variable C31 equal 0.5*(-37.3511245699352+58.548564428883)
variable C41 equal 0.5*(10.3540651557264+13.5292234737779)
variable C51 equal 0.5*(0.727099251557099+11.9639860398154)
variable C61 equal 0.5*(-0.132326277538535+-3.82531032463427)

# Delete dir to make sure it is not reused
variable dir delete
# uyy Perturbation
variable dir equal 2
include displace.mod.lmp
# Find which reference length to use
variable len0 equal 13.3517105651832

# Reset box and simulation parameters
clear
# box tilt large
read_restart equil.res
Reading restart file ...
  restart file = 2 Aug 2023, LAMMPS = 2 Aug 2023
  restoring atom style full from restart
  triclinic box = (-0.16850835 0.040044717 0.65076706) to (14.917208 13.391755 15.958833) with tilt (-7.8556212 0.0034935965 -0.84834476)
  pair style reaxff stores no restart info
  271 atoms
Finding 1-2 1-3 1-4 neighbors ...
     0 = max # of 1-2 neighbors
     0 = max # of 1-3 neighbors
     0 = max # of 1-4 neighbors
     1 = max # of special neighbors
  read_restart CPU = 0.003 seconds

# Negative deformation
variable delta equal -0.01*13.3517105651832
variable deltaxy equal -0.01*xy
variable deltaxz equal -0.01*xz
variable deltayz equal -0.01*yz
fix deform_n all deform 100 y delta 0 -0.133517105651832 yz delta 0.0084834475743105 remap x units box

# Run MD for Negative deformation
*****Negative-deform 2 starts.*****
include ff.mod.lmp
# Setup forcefield, system
# undefine any fix ave/* fix before using reset_timestep
if "$(is_defined(fix,avgp))" then "unfix avgp"
reset_timestep 0

# Assign the force field
pair_style reaxff NULL safezone 3.0 mincap 150
# pair_coeff * * CHONSSi.ff O Si
# pair_coeff * * CHOSiNa.ff O Si
# pair_coeff * * SiOCHN_2018.ff O Si
# pair_coeff * * PDMSDecomp.ff Si O
pair_coeff * * CHONSi.ff C H O Si
# pair_coeff * * CHOFe.ff O Si

# charge method for reaxff
fix myqeq all qeq/reaxff 1 0.0 10.0 1.0e-6 reaxff maxiter 400
# Setup neighbor style
neighbor        2 bin
neigh_modify    every 10 delay 0 check no

# Setup output
fix avgp all ave/time  10 10 100 c_thermo_press mode vector
thermo		100
thermo_style custom step temp pe press f_avgp[1] vol
thermo_modify norm no

# equilibration
fix 4 all nvt temp 300 300 50
  fix style: nvt, fix ID: 4

# save trajectory
dump dump_neg2 all custom 100 dump/neg_deform2.lammpstrj id type x y z
variable dir1 equal 2
run 2000
All restart file global fix info was re-assigned
Step          Temp          PotEng         Press        f_avgp[1]        Volume
0   299.85537     -31976.691      856.66901      0              3083.3525
Averages over the last 11 of 21 rows, steps 1000 to 2000:
Temp PotEng Press f_avgp[1] Volume
298.229 -31976.9 2578.32 2096.98 3060.23
Loop time of 80.9181 on 8 procs for 2000 steps with 271 atoms

# Obtain new stress tensor Negative deformation
variable pxx1 equal f_avgp[1]
variable pyy1 equal f_avgp[2]
variable pzz1 equal f_avgp[3]
variable pxy1 equal f_avgp[4]
variable pxz1 equal f_avgp[5]
variable pyz1 equal f_avgp[6]

# Compute elastic constant from pressure
# d1 = -[pxx1-pxx0]/[(]v_delta/v_len0] defined in input script
variable C1neg equal -62.5505352505851
variable C2neg equal -1.15346581542377
variable C3neg equal -41.6155391978533
variable C4neg equal -10.232497271218
variable C5neg equal -14.2696045419296
variable C6neg equal 2.51334015555518

# Reset box and simulation parameters
clear
# box tilt large
read_restart equil.res
Reading restart file ...
  restart file = 2 Aug 2023, LAMMPS = 2 Aug 2023
  restoring atom style full from restart
  triclinic box = (-0.16850835 0.040044717 0.65076706) to (14.917208 13.391755 15.958833) with tilt (-7.8556212 0.0034935965 -0.84834476)
  pair style reaxff stores no restart info
  271 atoms
Finding 1-2 1-3 1-4 neighbors ...
     0 = max # of 1-2 neighbors
     0 = max # of 1-3 neighbors
     0 = max # of 1-4 neighbors
     1 = max # of special neighbors
  read_restart CPU = 0.003 seconds

# Positive deformation
variable delta equal 0.01*13.3517105651832
variable deltaxy equal 0.01*xy
variable deltaxz equal 0.01*xz
variable deltayz equal 0.01*yz
fix deform_p all deform 100 y delta 0 0.133517105651832 yz delta -0.0084834475743105 remap x units box

# Run deformation MD
*****Positive-deform 2 starts.*****
include ff.mod.lmp
# Setup forcefield, system
# undefine any fix ave/* fix before using reset_timestep
if "$(is_defined(fix,avgp))" then "unfix avgp"
reset_timestep 0

# Assign the force field
pair_style reaxff NULL safezone 3.0 mincap 150
# pair_coeff * * CHONSSi.ff O Si
# pair_coeff * * CHOSiNa.ff O Si
# pair_coeff * * SiOCHN_2018.ff O Si
# pair_coeff * * PDMSDecomp.ff Si O
pair_coeff * * CHONSi.ff C H O Si
# pair_coeff * * CHOFe.ff O Si

# charge method for reaxff
fix myqeq all qeq/reaxff 1 0.0 10.0 1.0e-6 reaxff maxiter 400
# Setup neighbor style
neighbor        2 bin
neigh_modify    every 10 delay 0 check no

# Setup output
fix avgp all ave/time  10 10 100 c_thermo_press mode vector
thermo		100
thermo_style custom step temp pe press f_avgp[1] vol
thermo_modify norm no

# equilibration
fix 4 all nvt temp 300 300 50
  fix style: nvt, fix ID: 4

# save trajectory
dump dump_pos2 all custom 100 dump/pos_deform2.lammpstrj id type x y z
variable dir1 equal 2
run 2000
All restart file global fix info was re-assigned
Step          Temp          PotEng         Press        f_avgp[1]        Volume
0   299.85537     -31976.691      856.66901      0              3083.3525
Averages over the last 11 of 21 rows, steps 1000 to 2000:
Temp PotEng Press f_avgp[1] Volume
295.291 -31982.3 1558.73 1083.9 3106.48
Loop time of 79.8091 on 8 procs for 2000 steps with 271 atoms

# Obtain new stress tensor
variable pxx1 equal f_avgp[1]
variable pyy1 equal f_avgp[2]
variable pzz1 equal f_avgp[3]
variable pxy1 equal f_avgp[4]
variable pxz1 equal f_avgp[5]
variable pyz1 equal f_avgp[6]

# Compute elastic constant from pressure tensor
# d1 = -[pxx1-pxx0]/[(]v_delta/v_len0] defined in input script
variable C1pos equal 16.2873540103142
variable C2pos equal 68.9797259718745
variable C3pos equal 22.4232710935303
variable C4pos equal -5.0875427004282
variable C5pos equal 1.23106516474711
variable C6pos equal -3.954746034423

# Combine positive and negative
variable C12 equal 0.5*(-62.5505352505851+16.2873540103142)
variable C22 equal 0.5*(-1.15346581542377+68.9797259718745)
variable C32 equal 0.5*(-41.6155391978533+22.4232710935303)
variable C42 equal 0.5*(-10.232497271218+-5.0875427004282)
variable C52 equal 0.5*(-14.2696045419296+1.23106516474711)
variable C62 equal 0.5*(2.51334015555518+-3.954746034423)

# Delete dir to make sure it is not reused
variable dir delete
# uzz Perturbation
variable dir equal 3
include displace.mod.lmp
# Find which reference length to use
variable len0 equal 15.3080658871341

# Reset box and simulation parameters
clear
# box tilt large
read_restart equil.res
Reading restart file ...
  restart file = 2 Aug 2023, LAMMPS = 2 Aug 2023
  restoring atom style full from restart
  triclinic box = (-0.16850835 0.040044717 0.65076706) to (14.917208 13.391755 15.958833) with tilt (-7.8556212 0.0034935965 -0.84834476)
  pair style reaxff stores no restart info
  271 atoms
Finding 1-2 1-3 1-4 neighbors ...
     0 = max # of 1-2 neighbors
     0 = max # of 1-3 neighbors
     0 = max # of 1-4 neighbors
     1 = max # of special neighbors
  read_restart CPU = 0.003 seconds

# Negative deformation
variable delta equal -0.01*15.3080658871341
variable deltaxy equal -0.01*xy
variable deltaxz equal -0.01*xz
variable deltayz equal -0.01*yz
fix deform_n all deform 100 z delta 0 -0.153080658871341 remap x units box

# Run MD for Negative deformation
*****Negative-deform 3 starts.*****
include ff.mod.lmp
# Setup forcefield, system
# undefine any fix ave/* fix before using reset_timestep
if "$(is_defined(fix,avgp))" then "unfix avgp"
reset_timestep 0

# Assign the force field
pair_style reaxff NULL safezone 3.0 mincap 150
# pair_coeff * * CHONSSi.ff O Si
# pair_coeff * * CHOSiNa.ff O Si
# pair_coeff * * SiOCHN_2018.ff O Si
# pair_coeff * * PDMSDecomp.ff Si O
pair_coeff * * CHONSi.ff C H O Si
# pair_coeff * * CHOFe.ff O Si

# charge method for reaxff
fix myqeq all qeq/reaxff 1 0.0 10.0 1.0e-6 reaxff maxiter 400
# Setup neighbor style
neighbor        2 bin
neigh_modify    every 10 delay 0 check no

# Setup output
fix avgp all ave/time  10 10 100 c_thermo_press mode vector
thermo		100
thermo_style custom step temp pe press f_avgp[1] vol
thermo_modify norm no

# equilibration
fix 4 all nvt temp 300 300 50
  fix style: nvt, fix ID: 4

# save trajectory
dump dump_neg3 all custom 100 dump/neg_deform3.lammpstrj id type x y z
variable dir1 equal 3
run 2000
All restart file global fix info was re-assigned
Step          Temp          PotEng         Press        f_avgp[1]        Volume
0   299.85537     -31976.691      856.66901      0              3083.3525
Averages over the last 11 of 21 rows, steps 1000 to 2000:
Temp PotEng Press f_avgp[1] Volume
302.347 -31976.2 626.925 2390.33 3060.23
Loop time of 81.5978 on 8 procs for 2000 steps with 271 atoms

# Obtain new stress tensor Negative deformation
variable pxx1 equal f_avgp[1]
variable pyy1 equal f_avgp[2]
variable pzz1 equal f_avgp[3]
variable pxy1 equal f_avgp[4]
variable pxz1 equal f_avgp[5]
variable pyz1 equal f_avgp[6]

# Compute elastic constant from pressure
# d1 = -[pxx1-pxx0]/[(]v_delta/v_len0] defined in input script
variable C1neg equal 25.8590713210671
variable C2neg equal 46.2421403561189
variable C3neg equal 17.6180250752657
variable C4neg equal -15.9577792575414
variable C5neg equal -16.8391913852026
variable C6neg equal 2.30207185392561

# Reset box and simulation parameters
clear
# box tilt large
read_restart equil.res
Reading restart file ...
  restart file = 2 Aug 2023, LAMMPS = 2 Aug 2023
  restoring atom style full from restart
  triclinic box = (-0.16850835 0.040044717 0.65076706) to (14.917208 13.391755 15.958833) with tilt (-7.8556212 0.0034935965 -0.84834476)
  pair style reaxff stores no restart info
  271 atoms
Finding 1-2 1-3 1-4 neighbors ...
     0 = max # of 1-2 neighbors
     0 = max # of 1-3 neighbors
     0 = max # of 1-4 neighbors
     1 = max # of special neighbors
  read_restart CPU = 0.003 seconds

# Positive deformation
variable delta equal 0.01*15.3080658871341
variable deltaxy equal 0.01*xy
variable deltaxz equal 0.01*xz
variable deltayz equal 0.01*yz
fix deform_p all deform 100 z delta 0 0.153080658871341 remap x units box

# Run deformation MD
*****Positive-deform 3 starts.*****
include ff.mod.lmp
# Setup forcefield, system
# undefine any fix ave/* fix before using reset_timestep
if "$(is_defined(fix,avgp))" then "unfix avgp"
reset_timestep 0

# Assign the force field
pair_style reaxff NULL safezone 3.0 mincap 150
# pair_coeff * * CHONSSi.ff O Si
# pair_coeff * * CHOSiNa.ff O Si
# pair_coeff * * SiOCHN_2018.ff O Si
# pair_coeff * * PDMSDecomp.ff Si O
pair_coeff * * CHONSi.ff C H O Si
# pair_coeff * * CHOFe.ff O Si

# charge method for reaxff
fix myqeq all qeq/reaxff 1 0.0 10.0 1.0e-6 reaxff maxiter 400
# Setup neighbor style
neighbor        2 bin
neigh_modify    every 10 delay 0 check no

# Setup output
fix avgp all ave/time  10 10 100 c_thermo_press mode vector
thermo		100
thermo_style custom step temp pe press f_avgp[1] vol
thermo_modify norm no

# equilibration
fix 4 all nvt temp 300 300 50
  fix style: nvt, fix ID: 4

# save trajectory
dump dump_pos3 all custom 100 dump/pos_deform3.lammpstrj id type x y z
variable dir1 equal 3
run 2000
All restart file global fix info was re-assigned
Step          Temp          PotEng         Press        f_avgp[1]        Volume
0   299.85537     -31976.691      856.66901      0              3083.3525
Averages over the last 11 of 21 rows, steps 1000 to 2000:
Temp PotEng Press f_avgp[1] Volume
296.157 -31975.9 -2162.28 221.968 3106.48
Loop time of 80.1085 on 8 procs for 2000 steps with 271 atoms

# Obtain new stress tensor
variable pxx1 equal f_avgp[1]
variable pyy1 equal f_avgp[2]
variable pzz1 equal f_avgp[3]
variable pxy1 equal f_avgp[4]
variable pxz1 equal f_avgp[5]
variable pyz1 equal f_avgp[6]

# Compute elastic constant from pressure tensor
# d1 = -[pxx1-pxx0]/[(]v_delta/v_len0] defined in input script
variable C1pos equal -10.6660725812599
variable C2pos equal -10.9803996288955
variable C3pos equal 41.9247907281207
variable C4pos equal 13.2991548973838
variable C5pos equal 21.5550967913767
variable C6pos equal -9.36025838635826

# Combine positive and negative
variable C13 equal 0.5*(25.8590713210671+-10.6660725812599)
variable C23 equal 0.5*(46.2421403561189+-10.9803996288955)
variable C33 equal 0.5*(17.6180250752657+41.9247907281207)
variable C43 equal 0.5*(-15.9577792575414+13.2991548973838)
variable C53 equal 0.5*(-16.8391913852026+21.5550967913767)
variable C63 equal 0.5*(2.30207185392561+-9.36025838635826)

# Delete dir to make sure it is not reused
variable dir delete
# uyz Perturbation
variable dir equal 4
include displace.mod.lmp
# Find which reference length to use
variable len0 equal 15.3080658871341

# Reset box and simulation parameters
clear
# box tilt large
read_restart equil.res
Reading restart file ...
  restart file = 2 Aug 2023, LAMMPS = 2 Aug 2023
  restoring atom style full from restart
  triclinic box = (-0.16850835 0.040044717 0.65076706) to (14.917208 13.391755 15.958833) with tilt (-7.8556212 0.0034935965 -0.84834476)
  pair style reaxff stores no restart info
  271 atoms
Finding 1-2 1-3 1-4 neighbors ...
     0 = max # of 1-2 neighbors
     0 = max # of 1-3 neighbors
     0 = max # of 1-4 neighbors
     1 = max # of special neighbors
  read_restart CPU = 0.003 seconds

# Negative deformation
variable delta equal -0.01*15.3080658871341
variable deltaxy equal -0.01*xy
variable deltaxz equal -0.01*xz
variable deltayz equal -0.01*yz
fix deform_n all deform 100 yz delta -0.153080658871341 remap x units box

# Run MD for Negative deformation
*****Negative-deform 4 starts.*****
include ff.mod.lmp
# Setup forcefield, system
# undefine any fix ave/* fix before using reset_timestep
if "$(is_defined(fix,avgp))" then "unfix avgp"
reset_timestep 0

# Assign the force field
pair_style reaxff NULL safezone 3.0 mincap 150
# pair_coeff * * CHONSSi.ff O Si
# pair_coeff * * CHOSiNa.ff O Si
# pair_coeff * * SiOCHN_2018.ff O Si
# pair_coeff * * PDMSDecomp.ff Si O
pair_coeff * * CHONSi.ff C H O Si
# pair_coeff * * CHOFe.ff O Si

# charge method for reaxff
fix myqeq all qeq/reaxff 1 0.0 10.0 1.0e-6 reaxff maxiter 400
# Setup neighbor style
neighbor        2 bin
neigh_modify    every 10 delay 0 check no

# Setup output
fix avgp all ave/time  10 10 100 c_thermo_press mode vector
thermo		100
thermo_style custom step temp pe press f_avgp[1] vol
thermo_modify norm no

# equilibration
fix 4 all nvt temp 300 300 50
  fix style: nvt, fix ID: 4

# save trajectory
dump dump_neg4 all custom 100 dump/neg_deform4.lammpstrj id type x y z
variable dir1 equal 4
run 2000
All restart file global fix info was re-assigned
Step          Temp          PotEng         Press        f_avgp[1]        Volume
0   299.85537     -31976.691      856.66901      0              3083.3525
Averages over the last 11 of 21 rows, steps 1000 to 2000:
Temp PotEng Press f_avgp[1] Volume
305.23 -31981 -865.865 1782.87 3083.35
Loop time of 78.3981 on 8 procs for 2000 steps with 271 atoms

# Obtain new stress tensor Negative deformation
variable pxx1 equal f_avgp[1]
variable pyy1 equal f_avgp[2]
variable pzz1 equal f_avgp[3]
variable pxy1 equal f_avgp[4]
variable pxz1 equal f_avgp[5]
variable pyz1 equal f_avgp[6]

# Compute elastic constant from pressure
# d1 = -[pxx1-pxx0]/[(]v_delta/v_len0] defined in input script
variable C1neg equal -16.4994090112822
variable C2neg equal 33.331949687326
variable C3neg equal 13.7306806602123
variable C4neg equal 5.42767576198074
variable C5neg equal -2.99971222440562
variable C6neg equal 8.09817328827918

# Reset box and simulation parameters
clear
# box tilt large
read_restart equil.res
Reading restart file ...
  restart file = 2 Aug 2023, LAMMPS = 2 Aug 2023
  restoring atom style full from restart
  triclinic box = (-0.16850835 0.040044717 0.65076706) to (14.917208 13.391755 15.958833) with tilt (-7.8556212 0.0034935965 -0.84834476)
  pair style reaxff stores no restart info
  271 atoms
Finding 1-2 1-3 1-4 neighbors ...
     0 = max # of 1-2 neighbors
     0 = max # of 1-3 neighbors
     0 = max # of 1-4 neighbors
     1 = max # of special neighbors
  read_restart CPU = 0.002 seconds

# Positive deformation
variable delta equal 0.01*15.3080658871341
variable deltaxy equal 0.01*xy
variable deltaxz equal 0.01*xz
variable deltayz equal 0.01*yz
fix deform_p all deform 100 yz delta 0.153080658871341 remap x units box

# Run deformation MD
*****Positive-deform 4 starts.*****
include ff.mod.lmp
# Setup forcefield, system
# undefine any fix ave/* fix before using reset_timestep
if "$(is_defined(fix,avgp))" then "unfix avgp"
reset_timestep 0

# Assign the force field
pair_style reaxff NULL safezone 3.0 mincap 150
# pair_coeff * * CHONSSi.ff O Si
# pair_coeff * * CHOSiNa.ff O Si
# pair_coeff * * SiOCHN_2018.ff O Si
# pair_coeff * * PDMSDecomp.ff Si O
pair_coeff * * CHONSi.ff C H O Si
# pair_coeff * * CHOFe.ff O Si

# charge method for reaxff
fix myqeq all qeq/reaxff 1 0.0 10.0 1.0e-6 reaxff maxiter 400
# Setup neighbor style
neighbor        2 bin
neigh_modify    every 10 delay 0 check no

# Setup output
fix avgp all ave/time  10 10 100 c_thermo_press mode vector
thermo		100
thermo_style custom step temp pe press f_avgp[1] vol
thermo_modify norm no

# equilibration
fix 4 all nvt temp 300 300 50
  fix style: nvt, fix ID: 4

# save trajectory
dump dump_pos4 all custom 100 dump/pos_deform4.lammpstrj id type x y z
variable dir1 equal 4
run 2000
All restart file global fix info was re-assigned
Step          Temp          PotEng         Press        f_avgp[1]        Volume
0   299.85537     -31976.691      856.66901      0              3083.3525
Averages over the last 11 of 21 rows, steps 1000 to 2000:
Temp PotEng Press f_avgp[1] Volume
304.447 -31986.7 -741.366 -25.9392 3083.35
Loop time of 79.0852 on 8 procs for 2000 steps with 271 atoms

# Obtain new stress tensor
variable pxx1 equal f_avgp[1]
variable pyy1 equal f_avgp[2]
variable pzz1 equal f_avgp[3]
variable pxy1 equal f_avgp[4]
variable pxz1 equal f_avgp[5]
variable pyz1 equal f_avgp[6]

# Compute elastic constant from pressure tensor
# d1 = -[pxx1-pxx0]/[(]v_delta/v_len0] defined in input script
variable C1pos equal 75.8448767054667
variable C2pos equal 19.6072290096718
variable C3pos equal 12.3788727002601
variable C4pos equal 21.6550703582778
variable C5pos equal 5.58194193998723
variable C6pos equal -0.868453413792836

# Combine positive and negative
variable C14 equal 0.5*(-16.4994090112822+75.8448767054667)
variable C24 equal 0.5*(33.331949687326+19.6072290096718)
variable C34 equal 0.5*(13.7306806602123+12.3788727002601)
variable C44 equal 0.5*(5.42767576198074+21.6550703582778)
variable C54 equal 0.5*(-2.99971222440562+5.58194193998723)
variable C64 equal 0.5*(8.09817328827918+-0.868453413792836)

# Delete dir to make sure it is not reused
variable dir delete
# uxz Perturbation
variable dir equal 5
include displace.mod.lmp
# Find which reference length to use
variable len0 equal 15.3080658871341

# Reset box and simulation parameters
clear
# box tilt large
read_restart equil.res
Reading restart file ...
  restart file = 2 Aug 2023, LAMMPS = 2 Aug 2023
  restoring atom style full from restart
  triclinic box = (-0.16850835 0.040044717 0.65076706) to (14.917208 13.391755 15.958833) with tilt (-7.8556212 0.0034935965 -0.84834476)
  pair style reaxff stores no restart info
  271 atoms
Finding 1-2 1-3 1-4 neighbors ...
     0 = max # of 1-2 neighbors
     0 = max # of 1-3 neighbors
     0 = max # of 1-4 neighbors
     1 = max # of special neighbors
  read_restart CPU = 0.003 seconds

# Negative deformation
variable delta equal -0.01*15.3080658871341
variable deltaxy equal -0.01*xy
variable deltaxz equal -0.01*xz
variable deltayz equal -0.01*yz
fix deform_n all deform 100 xz delta -0.153080658871341 remap x units box

# Run MD for Negative deformation
*****Negative-deform 5 starts.*****
include ff.mod.lmp
# Setup forcefield, system
# undefine any fix ave/* fix before using reset_timestep
if "$(is_defined(fix,avgp))" then "unfix avgp"
reset_timestep 0

# Assign the force field
pair_style reaxff NULL safezone 3.0 mincap 150
# pair_coeff * * CHONSSi.ff O Si
# pair_coeff * * CHOSiNa.ff O Si
# pair_coeff * * SiOCHN_2018.ff O Si
# pair_coeff * * PDMSDecomp.ff Si O
pair_coeff * * CHONSi.ff C H O Si
# pair_coeff * * CHOFe.ff O Si

# charge method for reaxff
fix myqeq all qeq/reaxff 1 0.0 10.0 1.0e-6 reaxff maxiter 400
# Setup neighbor style
neighbor        2 bin
neigh_modify    every 10 delay 0 check no

# Setup output
fix avgp all ave/time  10 10 100 c_thermo_press mode vector
thermo		100
thermo_style custom step temp pe press f_avgp[1] vol
thermo_modify norm no

# equilibration
fix 4 all nvt temp 300 300 50
  fix style: nvt, fix ID: 4

# save trajectory
dump dump_neg5 all custom 100 dump/neg_deform5.lammpstrj id type x y z
variable dir1 equal 5
run 2000
All restart file global fix info was re-assigned
Step          Temp          PotEng         Press        f_avgp[1]        Volume
0   299.85537     -31976.691      856.66901      0              3083.3525
Averages over the last 11 of 21 rows, steps 1000 to 2000:
Temp PotEng Press f_avgp[1] Volume
307.032 -31986.4 -1536.12 1521.68 3083.35
Loop time of 81.3425 on 8 procs for 2000 steps with 271 atoms

# Obtain new stress tensor Negative deformation
variable pxx1 equal f_avgp[1]
variable pyy1 equal f_avgp[2]
variable pzz1 equal f_avgp[3]
variable pxy1 equal f_avgp[4]
variable pxz1 equal f_avgp[5]
variable pyz1 equal f_avgp[6]

# Compute elastic constant from pressure
# d1 = -[pxx1-pxx0]/[(]v_delta/v_len0] defined in input script
variable C1neg equal -4.51029799305822
variable C2neg equal 15.518778860647
variable C3neg equal -3.73846405577435
variable C4neg equal -12.3174540149602
variable C5neg equal 10.4692013372335
variable C6neg equal 8.92424405372228

# Reset box and simulation parameters
clear
# box tilt large
read_restart equil.res
Reading restart file ...
  restart file = 2 Aug 2023, LAMMPS = 2 Aug 2023
  restoring atom style full from restart
  triclinic box = (-0.16850835 0.040044717 0.65076706) to (14.917208 13.391755 15.958833) with tilt (-7.8556212 0.0034935965 -0.84834476)
  pair style reaxff stores no restart info
  271 atoms
Finding 1-2 1-3 1-4 neighbors ...
     0 = max # of 1-2 neighbors
     0 = max # of 1-3 neighbors
     0 = max # of 1-4 neighbors
     1 = max # of special neighbors
  read_restart CPU = 0.003 seconds

# Positive deformation
variable delta equal 0.01*15.3080658871341
variable deltaxy equal 0.01*xy
variable deltaxz equal 0.01*xz
variable deltayz equal 0.01*yz
fix deform_p all deform 100 xz delta 0.153080658871341 remap x units box

# Run deformation MD
*****Positive-deform 5 starts.*****
include ff.mod.lmp
# Setup forcefield, system
# undefine any fix ave/* fix before using reset_timestep
if "$(is_defined(fix,avgp))" then "unfix avgp"
reset_timestep 0

# Assign the force field
pair_style reaxff NULL safezone 3.0 mincap 150
# pair_coeff * * CHONSSi.ff O Si
# pair_coeff * * CHOSiNa.ff O Si
# pair_coeff * * SiOCHN_2018.ff O Si
# pair_coeff * * PDMSDecomp.ff Si O
pair_coeff * * CHONSi.ff C H O Si
# pair_coeff * * CHOFe.ff O Si

# charge method for reaxff
fix myqeq all qeq/reaxff 1 0.0 10.0 1.0e-6 reaxff maxiter 400
# Setup neighbor style
neighbor        2 bin
neigh_modify    every 10 delay 0 check no

# Setup output
fix avgp all ave/time  10 10 100 c_thermo_press mode vector
thermo		100
thermo_style custom step temp pe press f_avgp[1] vol
thermo_modify norm no

# equilibration
fix 4 all nvt temp 300 300 50
  fix style: nvt, fix ID: 4

# save trajectory
dump dump_pos5 all custom 100 dump/pos_deform5.lammpstrj id type x y z
variable dir1 equal 5
run 2000
All restart file global fix info was re-assigned
Step          Temp          PotEng         Press        f_avgp[1]        Volume
0   299.85537     -31976.691      856.66901      0              3083.3525
Averages over the last 11 of 21 rows, steps 1000 to 2000:
Temp PotEng Press f_avgp[1] Volume
297.471 -31974.9 2936.51 136.83 3083.35
Loop time of 81.5559 on 8 procs for 2000 steps with 271 atoms

# Obtain new stress tensor
variable pxx1 equal f_avgp[1]
variable pyy1 equal f_avgp[2]
variable pzz1 equal f_avgp[3]
variable pxy1 equal f_avgp[4]
variable pxz1 equal f_avgp[5]
variable pyz1 equal f_avgp[6]

# Compute elastic constant from pressure tensor
# d1 = -[pxx1-pxx0]/[(]v_delta/v_len0] defined in input script
variable C1pos equal 37.9628204599948
variable C2pos equal -10.21291425644
variable C3pos equal -22.5418699473759
variable C4pos equal 6.17020661298003
variable C5pos equal 22.5827492873841
variable C6pos equal -8.81732462127804

# Combine positive and negative
variable C15 equal 0.5*(-4.51029799305822+37.9628204599948)
variable C25 equal 0.5*(15.518778860647+-10.21291425644)
variable C35 equal 0.5*(-3.73846405577435+-22.5418699473759)
variable C45 equal 0.5*(-12.3174540149602+6.17020661298003)
variable C55 equal 0.5*(10.4692013372335+22.5827492873841)
variable C65 equal 0.5*(8.92424405372228+-8.81732462127804)

# Delete dir to make sure it is not reused
variable dir delete
# uxy Perturbation
variable dir equal 6
include displace.mod.lmp
# Find which reference length to use
variable len0 equal 13.3517105651832

# Reset box and simulation parameters
clear
# box tilt large
read_restart equil.res
Reading restart file ...
  restart file = 2 Aug 2023, LAMMPS = 2 Aug 2023
  restoring atom style full from restart
  triclinic box = (-0.16850835 0.040044717 0.65076706) to (14.917208 13.391755 15.958833) with tilt (-7.8556212 0.0034935965 -0.84834476)
  pair style reaxff stores no restart info
  271 atoms
Finding 1-2 1-3 1-4 neighbors ...
     0 = max # of 1-2 neighbors
     0 = max # of 1-3 neighbors
     0 = max # of 1-4 neighbors
     1 = max # of special neighbors
  read_restart CPU = 0.003 seconds

# Negative deformation
variable delta equal -0.01*13.3517105651832
variable deltaxy equal -0.01*xy
variable deltaxz equal -0.01*xz
variable deltayz equal -0.01*yz
fix deform_n all deform 100 xy delta -0.133517105651832 remap x units box

# Run MD for Negative deformation
*****Negative-deform 6 starts.*****
include ff.mod.lmp
# Setup forcefield, system
# undefine any fix ave/* fix before using reset_timestep
if "$(is_defined(fix,avgp))" then "unfix avgp"
reset_timestep 0

# Assign the force field
pair_style reaxff NULL safezone 3.0 mincap 150
# pair_coeff * * CHONSSi.ff O Si
# pair_coeff * * CHOSiNa.ff O Si
# pair_coeff * * SiOCHN_2018.ff O Si
# pair_coeff * * PDMSDecomp.ff Si O
pair_coeff * * CHONSi.ff C H O Si
# pair_coeff * * CHOFe.ff O Si

# charge method for reaxff
fix myqeq all qeq/reaxff 1 0.0 10.0 1.0e-6 reaxff maxiter 400
# Setup neighbor style
neighbor        2 bin
neigh_modify    every 10 delay 0 check no

# Setup output
fix avgp all ave/time  10 10 100 c_thermo_press mode vector
thermo		100
thermo_style custom step temp pe press f_avgp[1] vol
thermo_modify norm no

# equilibration
fix 4 all nvt temp 300 300 50
  fix style: nvt, fix ID: 4

# save trajectory
dump dump_neg6 all custom 100 dump/neg_deform6.lammpstrj id type x y z
variable dir1 equal 6
run 2000
All restart file global fix info was re-assigned
Step          Temp          PotEng         Press        f_avgp[1]        Volume
0   299.85537     -31976.691      856.66901      0              3083.3525
Averages over the last 11 of 21 rows, steps 1000 to 2000:
Temp PotEng Press f_avgp[1] Volume
302.563 -31979.9 -1725.83 341.917 3083.35
Loop time of 81.3588 on 8 procs for 2000 steps with 271 atoms

# Obtain new stress tensor Negative deformation
variable pxx1 equal f_avgp[1]
variable pyy1 equal f_avgp[2]
variable pzz1 equal f_avgp[3]
variable pxy1 equal f_avgp[4]
variable pxz1 equal f_avgp[5]
variable pyz1 equal f_avgp[6]

# Compute elastic constant from pressure
# d1 = -[pxx1-pxx0]/[(]v_delta/v_len0] defined in input script
variable C1neg equal -58.9167608991613
variable C2neg equal -10.396129455742
variable C3neg equal -21.035780237297
variable C4neg equal -14.7525350654484
variable C5neg equal 3.32755730409245
variable C6neg equal 5.71829212289629

# Reset box and simulation parameters
clear
# box tilt large
read_restart equil.res
Reading restart file ...
  restart file = 2 Aug 2023, LAMMPS = 2 Aug 2023
  restoring atom style full from restart
  triclinic box = (-0.16850835 0.040044717 0.65076706) to (14.917208 13.391755 15.958833) with tilt (-7.8556212 0.0034935965 -0.84834476)
  pair style reaxff stores no restart info
  271 atoms
Finding 1-2 1-3 1-4 neighbors ...
     0 = max # of 1-2 neighbors
     0 = max # of 1-3 neighbors
     0 = max # of 1-4 neighbors
     1 = max # of special neighbors
  read_restart CPU = 0.003 seconds

# Positive deformation
variable delta equal 0.01*13.3517105651832
variable deltaxy equal 0.01*xy
variable deltaxz equal 0.01*xz
variable deltayz equal 0.01*yz
fix deform_p all deform 100 xy delta 0.133517105651832 remap x units box

# Run deformation MD
*****Positive-deform 6 starts.*****
include ff.mod.lmp
# Setup forcefield, system
# undefine any fix ave/* fix before using reset_timestep
if "$(is_defined(fix,avgp))" then "unfix avgp"
reset_timestep 0

# Assign the force field
pair_style reaxff NULL safezone 3.0 mincap 150
# pair_coeff * * CHONSSi.ff O Si
# pair_coeff * * CHOSiNa.ff O Si
# pair_coeff * * SiOCHN_2018.ff O Si
# pair_coeff * * PDMSDecomp.ff Si O
pair_coeff * * CHONSi.ff C H O Si
# pair_coeff * * CHOFe.ff O Si

# charge method for reaxff
fix myqeq all qeq/reaxff 1 0.0 10.0 1.0e-6 reaxff maxiter 400
# Setup neighbor style
neighbor        2 bin
neigh_modify    every 10 delay 0 check no

# Setup output
fix avgp all ave/time  10 10 100 c_thermo_press mode vector
thermo		100
thermo_style custom step temp pe press f_avgp[1] vol
thermo_modify norm no

# equilibration
fix 4 all nvt temp 300 300 50
  fix style: nvt, fix ID: 4

# save trajectory
dump dump_pos6 all custom 100 dump/pos_deform6.lammpstrj id type x y z
variable dir1 equal 6
run 2000
All restart file global fix info was re-assigned
Step          Temp          PotEng         Press        f_avgp[1]        Volume
0   299.85537     -31976.691      856.66901      0              3083.3525
Averages over the last 11 of 21 rows, steps 1000 to 2000:
Temp PotEng Press f_avgp[1] Volume
308.524 -31979.7 162.847 680.394 3083.35
Loop time of 78.9588 on 8 procs for 2000 steps with 271 atoms

# Obtain new stress tensor
variable pxx1 equal f_avgp[1]
variable pyy1 equal f_avgp[2]
variable pzz1 equal f_avgp[3]
variable pxy1 equal f_avgp[4]
variable pxz1 equal f_avgp[5]
variable pyz1 equal f_avgp[6]

# Compute elastic constant from pressure tensor
# d1 = -[pxx1-pxx0]/[(]v_delta/v_len0] defined in input script
variable C1pos equal 33.7617913276728
variable C2pos equal 13.0010573309819
variable C3pos equal 38.6885128615886
variable C4pos equal 15.286184394732
variable C5pos equal 1.06468702700638
variable C6pos equal 4.91274006032514

# Combine positive and negative
variable C16 equal 0.5*(-58.9167608991613+33.7617913276728)
variable C26 equal 0.5*(-10.396129455742+13.0010573309819)
variable C36 equal 0.5*(-21.035780237297+38.6885128615886)
variable C46 equal 0.5*(-14.7525350654484+15.286184394732)
variable C56 equal 0.5*(3.32755730409245+1.06468702700638)
variable C66 equal 0.5*(5.71829212289629+4.91274006032514)

# Delete dir to make sure it is not reused
variable dir delete

# Calc and output
include calc.mod.lmp
variable C11all equal 55.1362941814065
variable C22all equal 33.9131300782254
variable C33all equal 29.7714079016932

variable C44all equal 13.5413730601293
variable C55all equal 16.5259753123088
variable C66all equal 5.31551609161072

variable C12all equal 0.5*(-23.1315906201354+17.700954673234)
variable C13all equal 0.5*(7.5964993699036+10.5987199294739)
variable C23all equal 0.5*(17.6308703636117+-9.5961340521615)

variable C14all equal 0.5*(29.6727338470923+11.9416443147521)
variable C15all equal 0.5*(16.7262612334683+6.34554264568625)
variable C16all equal 0.5*(-12.5774847857442+-1.9788183010864)

variable C24all equal 0.5*(26.4695893484989+-7.6600199858231)
variable C25all equal 0.5*(2.6529323021035+-6.51926968859124)
variable C26all equal 0.5*(1.30246393761995+-0.72070293943391)

variable C34all equal 0.5*(13.0547766802362+-1.3293121800788)
variable C35all equal 0.5*(-13.1401670015751+2.35795270308705)
variable C36all equal 0.5*(8.8263663121458+-3.52909326621632)

variable C45all equal 0.5*(-3.07362370099009+1.2911148577908)
variable C46all equal 0.5*(0.2668246646418+3.61485993724317)
variable C56all equal 0.5*(2.19612216554941+0.05345971622212)

# print stiffness tensor to "C.log"
print """
"""  file C.log screen no
