LAMMPS (2 Aug 2023 - Update 2)
# Initialization
units           real
dimension       3
boundary        p p p
atom_style      full

variable       timestep equal 0.5   # fs
variable       T equal 300.0   # low temperature
variable       Td equal 100*0.5
# variable       P equal 1.0  # pressure

variable       nevery equal 1000
variable       nrepeat equal 1
variable       nfreq equal 1000*1
variable       nthermo equal 1000/10
variable       nequil equal 20*100

variable       seed string 123456
variable       structure string 0.lmpdata/333U-50C-5
variable       FF string "* * SiOCHN_2018.ff C H O Si"          # force field args for pair_coeff
# pair_coeff * * CHONSSi.ff C H O Si
# pair_coeff * * CHOSiNa.ff C H O Si
# pair_coeff * * SiOCHN_2018.ff C H O Si
# pair_coeff * * PDMSDecomp.ff C H O Si
# pair_coeff * * CHONSi.ff C H O Si
# pair_coeff * * CHOFe.ff O Si

timestep        0.5

# box tilt large
# Read the initial sctructure
read_data       0.lmpdata/333U-50C-5.data
Reading data file ...
  triclinic box = (0 0 0) to (15.6782 14.2194 17.6383) with tilt (-7.0409 -1.0144 0.675)
  reading atoms ...
  350 atoms
Finding 1-2 1-3 1-4 neighbors ...
     0 = max # of 1-2 neighbors
     0 = max # of 1-3 neighbors
     0 = max # of 1-4 neighbors
     1 = max # of special neighbors

# Assign the force field
pair_style reaxff NULL safezone 3.0 mincap 150
pair_coeff * * SiOCHN_2018.ff C H O Si
# Charge equilibration for ReaxFF
fix myqeq all qeq/reaxff 1 0.0 10.0 1.0e-6 reaxff maxiter 400

neighbor        2 bin
neigh_modify    every 10 delay 0 check yes

# Energy minimization
print "*****Minimization starts.*****"
*****Minimization starts.*****
# Print system info
thermo          100
thermo_style    custom step temp press density vol pe etotal
dump dump_opt all custom 1 dump/dump_opt.lammpstrj id type q x y z
minimize 1.0e-6 1.0e-6 100 1000

CITE-CITE-CITE-CITE-CITE-CITE-CITE-CITE-CITE-CITE-CITE-CITE-CITE

Your simulation uses code contributions which should be cited:

- pair reaxff command: doi:10.1016/j.parco.2011.08.005

@Article{Aktulga12,
 author = {H. M. Aktulga and J. C. Fogarty and S. A. Pandit and A. Y. Grama},
 title = {Parallel Reactive Molecular Dynamics: {N}umerical Methods and Algorithmic Techniques},
 journal = {Parallel Computing},
 year =    2012,
 volume =  38,
 number =  {4--5},
 pages =   {245--259}
}

- fix qeq/reaxff command: doi:10.1016/j.parco.2011.08.005

@Article{Aktulga12,
 author = {H. M. Aktulga and J. C. Fogarty and S. A. Pandit and A. Y. Grama},
 title = {Parallel Reactive Molecular Dynamics: {N}umerical Methods and Algorithmic Techniques},
 journal = {Parallel Computing},
 year =    2012,
 volume =  38,
 pages =   {245--259}
}

CITE-CITE-CITE-CITE-CITE-CITE-CITE-CITE-CITE-CITE-CITE-CITE-CITE

Step          Temp          Press         Density         Volume         PotEng         TotEng
0   0              172158.12      1.6516858      3932.1873     -30535.512     -30535.512
Loop time of 4.11651 on 8 procs for 41 steps with 350 atoms

Minimization stats:
  Stopping criterion = energy tolerance
  Energy initial, next-to-last, final =
  Force two-norm initial, final = 4613.0821 562.9946
  Force max component initial, final = 555.68586 316.74259
  Final line search alpha, max atom move = 0.00012560726 0.03978517
  Iterations, force evaluations = 41 149

min_style cg
# Save the optimized structure
write_data 0.lmpdata/333U-50C-5_opt.data
System init for write_data ...
undump dump_opt
reset_timestep 0

velocity        all create 300 123456 dist gaussian
# equilibration at low T
print "##### Equilibration starts.##### "
##### Equilibration starts.#####
velocity        all create 300 12345
fix             equil1 all nvt temp 300 300 50

# out put bonds and species information
fix bondinfo all reaxff/bonds 100 bonds/bonds.reaxff

# compute MSD and RDF
compute msd1 all msd
fix myMSD all ave/time 10 10 100 c_msd1[1] c_msd1[2] c_msd1[3] c_msd1[4] c_thermo_temp     file msd.out     title2 "# TimeStep MSD_X MSD_Y MSD_Z MSD_Total Temperture"
# C-C C-Si Si-O C-H Si-Si
compute rdf1 all rdf 200 1 1 1 4 3 4 1 2 4 4 cutoff 5.0
fix myRDF all ave/time 1000 1 1000 c_rdf1[*]     file rdf.out mode vector     title3 "# Row r g1(r) coor1(r) ..."

thermo_style    custom step temp press pe etotal
# Save trajectory
dump dump_eq all custom/gz 100 dump/dump_eq.lammpstrj.gz id type x y z q

run 2000
Step          Temp          Press          PotEng         TotEng
0   300           -2571.765      -33879.275     -33567.185
Averages over the last 11 of 21 rows, steps 1000 to 2000:
Temp Press PotEng TotEng
310.075 4385.94 -34174.3 -33851.7
Loop time of 46.6679 on 8 procs for 2000 steps with 350 atoms

# Save the equilibrated structure
write_data 0.lmpdata/333U-50C-5_eq.data
System init for write_data ...
undump dump_eq
unfix myMSD
unfix myRDF
