LAMMPS (2 Aug 2023 - Update 2)
# Initialization
units           real
dimension       3
boundary        p p p
atom_style      full
timestep        0.5   # fs

# Define MD parameters
variable nevery equal 10                  # sampling interval
variable nrepeat equal 10                 # number of samples
variable nthermo equal 10*10
variable nfreq equal 100
# 1 ps : 1e3 fs / 0.5 fs = 2e3 steps
variable nequil equal 20*100
variable nrun equal 20*100
variable temp equal 300.0                # temperature of initial sample
variable tdamp equal 50.0                 # time constant for thermostat
variable seed equal 123457                # seed for thermostat
variable ufac equal 1.01325e-4         # pressure unit conversion, from atm to Gpa
variable up equal 0.01                  # the deformation magnitude 2.0e-2

# Read the initial sctructure
# box tilt large
variable structure string 333U-50C-20-vasp
read_data       333U-50C-20-vasp.data
Reading data file ...
  triclinic box = (0 0 0) to (15.2382 14.5028 17.0085) with tilt (-6.2627 -0.4482 -0.642)
  reading atoms ...
  350 atoms
Finding 1-2 1-3 1-4 neighbors ...
     0 = max # of 1-2 neighbors
     0 = max # of 1-3 neighbors
     0 = max # of 1-4 neighbors
     1 = max # of special neighbors

# Energy minimization
print "*****Minimization starts.*****"
*****Minimization starts.*****
velocity        all create 300 123457 dist gaussian
minimize 1.0e-6 1.0e-6 100 1000
Step          Temp          E_pair         E_mol          TotEng         Press
0   300            0              0              312.09081      3795.4414
Loop time of 8.82769e-05 on 16 procs for 1 steps with 350 atoms

Minimization stats:
  Stopping criterion = search direction is not downhill
  Energy initial, next-to-last, final =
  Force two-norm initial, final = 0 0
  Force max component initial, final = 0 0
  Final line search alpha, max atom move = 0 0
  Iterations, force evaluations = 1 0

min_style cg

# Equilibration
include ff.mod.lmp
# Setup forcefield, system
# undefine any fix ave/* fix before using reset_timestep
if "$(is_defined(fix,avgp))" then "unfix avgp"
reset_timestep 0

# Assign the force field
pair_style reaxff NULL safezone 3.0 mincap 150
# pair_coeff * * CHONSSi.ff O Si
# pair_coeff * * CHOSiNa.ff O Si
# pair_coeff * * SiOCHN_2018.ff O Si
# pair_coeff * * PDMSDecomp.ff Si O
pair_coeff * * CHONSi.ff C H O Si
# pair_coeff * * CHOFe.ff O Si

# charge method for reaxff
fix myqeq all qeq/reaxff 1 0.0 10.0 1.0e-6 reaxff maxiter 400
# Setup neighbor style
neighbor        2 bin
neigh_modify    every 10 delay 0 check no

# Setup output
fix avgp all ave/time  10 10 100 c_thermo_press mode vector
thermo		100
thermo_style custom step temp pe press f_avgp[1] vol
thermo_modify norm no

# NVT
fix 4 all nvt temp 300 300 50
thermo_style custom step temp pe press f_avgp[1] density vol
run 2000

CITE-CITE-CITE-CITE-CITE-CITE-CITE-CITE-CITE-CITE-CITE-CITE-CITE

Your simulation uses code contributions which should be cited:

- pair reaxff command: doi:10.1016/j.parco.2011.08.005

@Article{Aktulga12,
 author = {H. M. Aktulga and J. C. Fogarty and S. A. Pandit and A. Y. Grama},
 title = {Parallel Reactive Molecular Dynamics: {N}umerical Methods and Algorithmic Techniques},
 journal = {Parallel Computing},
 year =    2012,
 volume =  38,
 number =  {4--5},
 pages =   {245--259}
}

- fix qeq/reaxff command: doi:10.1016/j.parco.2011.08.005

@Article{Aktulga12,
 author = {H. M. Aktulga and J. C. Fogarty and S. A. Pandit and A. Y. Grama},
 title = {Parallel Reactive Molecular Dynamics: {N}umerical Methods and Algorithmic Techniques},
 journal = {Parallel Computing},
 year =    2012,
 volume =  38,
 pages =   {245--259}
}

CITE-CITE-CITE-CITE-CITE-CITE-CITE-CITE-CITE-CITE-CITE-CITE-CITE

Step          Temp          PotEng         Press        f_avgp[1]       Density         Volume
0   300           -39436.432      138394.29      0              1.7278661      3758.8201
Averages over the last 11 of 21 rows, steps 1000 to 2000:
Temp PotEng Press f_avgp[1] Density Volume
300.259 -41129.3 -5289.13 -3661.17 1.72787 3758.82
Loop time of 98.7202 on 16 procs for 2000 steps with 350 atoms

# Save the optimized structure
write_data 333U-50C-20-vasp_opt.data
System init for write_data ...

# Save initial pressure, box size
variable pxx0 equal f_avgp[1]
variable pyy0 equal f_avgp[2]
variable pzz0 equal f_avgp[3]
variable pxy0 equal f_avgp[4]
variable pxz0 equal f_avgp[5]
variable pyz0 equal f_avgp[6]

# use tmp to save initial box length
variable tmp equal lx
variable lx0 equal 15.2382
variable tmp equal ly
variable ly0 equal 14.5028
variable tmp equal lz
variable lz0 equal 17.0085

# define the derivatives, w.r.t. strain tensor
# Constants uses $, variables use v_
variable d1 equal -(v_pxx1--6767.0872090041)/(v_delta/v_len0)*0.000101325
variable d2 equal -(v_pyy1--7471.08390855294)/(v_delta/v_len0)*0.000101325
variable d3 equal -(v_pzz1--7878.56365707018)/(v_delta/v_len0)*0.000101325
variable d4 equal -(v_pyz1--2286.79684845709)/(v_delta/v_len0)*0.000101325*0.5
variable d5 equal -(v_pxz1--3022.11177300216)/(v_delta/v_len0)*0.000101325*0.5
variable d6 equal -(v_pxy1--1523.1796245039)/(v_delta/v_len0)*0.000101325*0.5

# Write restart
write_restart equil.res
System init for write_restart ...

# dir: direction
# uxx Perturbation
variable dir equal 1
include displace.mod.lmp
# Find which reference length to use
variable len0 equal 15.2382

# Reset box and simulation parameters
clear
# box tilt large
read_restart equil.res
Reading restart file ...
  restart file = 2 Aug 2023, LAMMPS = 2 Aug 2023
  restoring atom style full from restart
  triclinic box = (0 0 0) to (15.2382 14.5028 17.0085) with tilt (-6.2627 -0.4482 -0.642)
  pair style reaxff stores no restart info
  350 atoms
Finding 1-2 1-3 1-4 neighbors ...
     0 = max # of 1-2 neighbors
     0 = max # of 1-3 neighbors
     0 = max # of 1-4 neighbors
     1 = max # of special neighbors
  read_restart CPU = 0.003 seconds
*****Negative-change 1 starts.*****
include ff.mod.lmp
# Setup forcefield, system
# undefine any fix ave/* fix before using reset_timestep
if "$(is_defined(fix,avgp))" then "unfix avgp"
reset_timestep 0

# Assign the force field
pair_style reaxff NULL safezone 3.0 mincap 150
# pair_coeff * * CHONSSi.ff O Si
# pair_coeff * * CHOSiNa.ff O Si
# pair_coeff * * SiOCHN_2018.ff O Si
# pair_coeff * * PDMSDecomp.ff Si O
pair_coeff * * CHONSi.ff C H O Si
# pair_coeff * * CHOFe.ff O Si

# charge method for reaxff
fix myqeq all qeq/reaxff 1 0.0 10.0 1.0e-6 reaxff maxiter 400
# Setup neighbor style
neighbor        2 bin
neigh_modify    every 10 delay 0 check no

# Setup output
fix avgp all ave/time  10 10 100 c_thermo_press mode vector
thermo		100
thermo_style custom step temp pe press f_avgp[1] vol
thermo_modify norm no

# NVT
fix 4 all nvt temp 300 300 50
  fix style: nvt, fix ID: 4

# Negative deformation
variable delta equal -0.01*15.2382
variable deltaxy equal -0.01*xy
variable deltaxz equal -0.01*xz
variable deltayz equal -0.01*yz
change_box all x delta 0 -0.152382 xy delta 0.062627 xz delta 0.004482 remap units box
Changing box ...
  triclinic box = (0 0 0) to (15.085818 14.5028 17.0085) with tilt (-6.2627 -0.4482 -0.642)
  triclinic box = (0 0 0) to (15.085818 14.5028 17.0085) with tilt (-6.200073 -0.4482 -0.642)
  triclinic box = (0 0 0) to (15.085818 14.5028 17.0085) with tilt (-6.200073 -0.443718 -0.642)

# Run MD for Negative deformation
# save trajectory
dump dump_neg1 all custom 100 dump/neg_deform1.lammpstrj id type x y z
run 2000
All restart file global fix info was re-assigned
Step          Temp          PotEng         Press        f_avgp[1]        Volume
0   307.18527     -41134.587      46594.669      0              3721.2319
Averages over the last 11 of 21 rows, steps 1000 to 2000:
Temp PotEng Press f_avgp[1] Volume
301.862 -41185.9 5735.6 -1587.52 3721.23
Loop time of 101.196 on 16 procs for 2000 steps with 350 atoms

undump dump_neg1

# Run equilibration
*****Equilibration neg1 starts.*****
include ff.mod.lmp
# Setup forcefield, system
# undefine any fix ave/* fix before using reset_timestep
if "$(is_defined(fix,avgp))" then "unfix avgp"
unfix avgp
reset_timestep 0

# Assign the force field
pair_style reaxff NULL safezone 3.0 mincap 150
# pair_coeff * * CHONSSi.ff O Si
# pair_coeff * * CHOSiNa.ff O Si
# pair_coeff * * SiOCHN_2018.ff O Si
# pair_coeff * * PDMSDecomp.ff Si O
pair_coeff * * CHONSi.ff C H O Si
# pair_coeff * * CHOFe.ff O Si

# charge method for reaxff
fix myqeq all qeq/reaxff 1 0.0 10.0 1.0e-6 reaxff maxiter 400
# Setup neighbor style
neighbor        2 bin
neigh_modify    every 10 delay 0 check no

# Setup output
fix avgp all ave/time  10 10 100 c_thermo_press mode vector
thermo		100
thermo_style custom step temp pe press f_avgp[1] vol
thermo_modify norm no

# NVT
fix 4 all nvt temp 300 300 50
run 2000
Step          Temp          PotEng         Press        f_avgp[1]        Volume
0   290.39849     -41204.908      474.5255       0              3721.2319
Averages over the last 11 of 21 rows, steps 1000 to 2000:
Temp PotEng Press f_avgp[1] Volume
301.388 -41203.8 -2965.18 -2871.95 3721.23
Loop time of 101.674 on 16 procs for 2000 steps with 350 atoms

# Obtain new stress tensor Negative deformation, convert index from LAMMPS to Voigt
variable pxx1 equal f_avgp[1]
variable pyy1 equal f_avgp[2]
variable pzz1 equal f_avgp[3]
variable pxy1 equal f_avgp[4]
variable pxz1 equal f_avgp[5]
variable pyz1 equal f_avgp[6]

# Compute elastic constant from pressure
# d1 = -[pxx1-pxx0]/[(]v_delta/v_len0] defined in input script
variable C1neg equal 11.6653936560696
variable C2neg equal 71.2246242706452
variable C3neg equal 83.9679066595552
variable C4neg equal -6.8887315672418
variable C5neg equal 24.5377512155649
variable C6neg equal 13.265134095658

# Reset box and simulation parameters
clear
# box tilt large
read_restart equil.res
Reading restart file ...
  restart file = 2 Aug 2023, LAMMPS = 2 Aug 2023
  restoring atom style full from restart
  triclinic box = (0 0 0) to (15.2382 14.5028 17.0085) with tilt (-6.2627 -0.4482 -0.642)
  pair style reaxff stores no restart info
  350 atoms
Finding 1-2 1-3 1-4 neighbors ...
     0 = max # of 1-2 neighbors
     0 = max # of 1-3 neighbors
     0 = max # of 1-4 neighbors
     1 = max # of special neighbors
  read_restart CPU = 0.004 seconds
*****Positive-change 1 starts.*****
include ff.mod.lmp
# Setup forcefield, system
# undefine any fix ave/* fix before using reset_timestep
if "$(is_defined(fix,avgp))" then "unfix avgp"
reset_timestep 0

# Assign the force field
pair_style reaxff NULL safezone 3.0 mincap 150
# pair_coeff * * CHONSSi.ff O Si
# pair_coeff * * CHOSiNa.ff O Si
# pair_coeff * * SiOCHN_2018.ff O Si
# pair_coeff * * PDMSDecomp.ff Si O
pair_coeff * * CHONSi.ff C H O Si
# pair_coeff * * CHOFe.ff O Si

# charge method for reaxff
fix myqeq all qeq/reaxff 1 0.0 10.0 1.0e-6 reaxff maxiter 400
# Setup neighbor style
neighbor        2 bin
neigh_modify    every 10 delay 0 check no

# Setup output
fix avgp all ave/time  10 10 100 c_thermo_press mode vector
thermo		100
thermo_style custom step temp pe press f_avgp[1] vol
thermo_modify norm no

# NVT
fix 4 all nvt temp 300 300 50
  fix style: nvt, fix ID: 4

# Positive deformation
variable delta equal 0.01*15.2382
variable deltaxy equal 0.01*xy
variable deltaxz equal 0.01*xz
variable deltayz equal 0.01*yz
change_box all x delta 0 0.152382 xy delta -0.062627 xz delta -0.004482 remap units box
Changing box ...
  triclinic box = (0 0 0) to (15.390582 14.5028 17.0085) with tilt (-6.2627 -0.4482 -0.642)
  triclinic box = (0 0 0) to (15.390582 14.5028 17.0085) with tilt (-6.325327 -0.4482 -0.642)
  triclinic box = (0 0 0) to (15.390582 14.5028 17.0085) with tilt (-6.325327 -0.452682 -0.642)

# Run positive deformation MD
# save trajectory
dump dump_pos1 all custom 100 dump/pos_deform1.lammpstrj id type x y z
run 2000
All restart file global fix info was re-assigned
Step          Temp          PotEng         Press        f_avgp[1]        Volume
0   307.18527     -41121.269     -54026.338      0              3796.4083
Averages over the last 11 of 21 rows, steps 1000 to 2000:
Temp PotEng Press f_avgp[1] Volume
299.55 -41148.2 -8302.41 -7572.51 3796.41
Loop time of 98.435 on 16 procs for 2000 steps with 350 atoms

undump dump_pos1

# Run equilibration
*****Equilibration pos1 starts.*****
include ff.mod.lmp
# Setup forcefield, system
# undefine any fix ave/* fix before using reset_timestep
if "$(is_defined(fix,avgp))" then "unfix avgp"
unfix avgp
reset_timestep 0

# Assign the force field
pair_style reaxff NULL safezone 3.0 mincap 150
# pair_coeff * * CHONSSi.ff O Si
# pair_coeff * * CHOSiNa.ff O Si
# pair_coeff * * SiOCHN_2018.ff O Si
# pair_coeff * * PDMSDecomp.ff Si O
pair_coeff * * CHONSi.ff C H O Si
# pair_coeff * * CHOFe.ff O Si

# charge method for reaxff
fix myqeq all qeq/reaxff 1 0.0 10.0 1.0e-6 reaxff maxiter 400
# Setup neighbor style
neighbor        2 bin
neigh_modify    every 10 delay 0 check no

# Setup output
fix avgp all ave/time  10 10 100 c_thermo_press mode vector
thermo		100
thermo_style custom step temp pe press f_avgp[1] vol
thermo_modify norm no

# NVT
fix 4 all nvt temp 300 300 50
run 2000
Step          Temp          PotEng         Press        f_avgp[1]        Volume
0   315.8256      -41144.403     -3272.8741      0              3796.4083
Averages over the last 11 of 21 rows, steps 1000 to 2000:
Temp PotEng Press f_avgp[1] Volume
293.93 -41158.8 -4639.52 -5256.73 3796.41
Loop time of 98.2761 on 16 procs for 2000 steps with 350 atoms

# Obtain new stress tensor, convert index from LAMMPS to Voigt
variable pxx1 equal f_avgp[1]
variable pyy1 equal f_avgp[2]
variable pzz1 equal f_avgp[3]
variable pxy1 equal f_avgp[4]
variable pxz1 equal f_avgp[5]
variable pyz1 equal f_avgp[6]

# Compute elastic constant from pressure tensor
# d1 = -[pxx1-pxx0]/[(]v_delta/v_len0] defined in input script
variable C1pos equal 3.44125211959935
variable C2pos equal -28.4603483746377
variable C3pos equal -8.77964973976078
variable C4pos equal 15.2572165031817
variable C5pos equal -19.6780136804858
variable C6pos equal 5.9143154260862

# Combine positive and negative
variable C11 equal 0.5*(11.6653936560696+3.44125211959935)
variable C21 equal 0.5*(71.2246242706452+-28.4603483746377)
variable C31 equal 0.5*(83.9679066595552+-8.77964973976078)
variable C41 equal 0.5*(-6.8887315672418+15.2572165031817)
variable C51 equal 0.5*(24.5377512155649+-19.6780136804858)
variable C61 equal 0.5*(13.265134095658+5.9143154260862)

# Delete dir to make sure it is not reused
variable dir delete
# uyy Perturbation
variable dir equal 2
include displace.mod.lmp
# Find which reference length to use
variable len0 equal 14.5028

# Reset box and simulation parameters
clear
# box tilt large
read_restart equil.res
Reading restart file ...
  restart file = 2 Aug 2023, LAMMPS = 2 Aug 2023
  restoring atom style full from restart
  triclinic box = (0 0 0) to (15.2382 14.5028 17.0085) with tilt (-6.2627 -0.4482 -0.642)
  pair style reaxff stores no restart info
  350 atoms
Finding 1-2 1-3 1-4 neighbors ...
     0 = max # of 1-2 neighbors
     0 = max # of 1-3 neighbors
     0 = max # of 1-4 neighbors
     1 = max # of special neighbors
  read_restart CPU = 0.003 seconds
*****Negative-change 2 starts.*****
include ff.mod.lmp
# Setup forcefield, system
# undefine any fix ave/* fix before using reset_timestep
if "$(is_defined(fix,avgp))" then "unfix avgp"
reset_timestep 0

# Assign the force field
pair_style reaxff NULL safezone 3.0 mincap 150
# pair_coeff * * CHONSSi.ff O Si
# pair_coeff * * CHOSiNa.ff O Si
# pair_coeff * * SiOCHN_2018.ff O Si
# pair_coeff * * PDMSDecomp.ff Si O
pair_coeff * * CHONSi.ff C H O Si
# pair_coeff * * CHOFe.ff O Si

# charge method for reaxff
fix myqeq all qeq/reaxff 1 0.0 10.0 1.0e-6 reaxff maxiter 400
# Setup neighbor style
neighbor        2 bin
neigh_modify    every 10 delay 0 check no

# Setup output
fix avgp all ave/time  10 10 100 c_thermo_press mode vector
thermo		100
thermo_style custom step temp pe press f_avgp[1] vol
thermo_modify norm no

# NVT
fix 4 all nvt temp 300 300 50
  fix style: nvt, fix ID: 4

# Negative deformation
variable delta equal -0.01*14.5028
variable deltaxy equal -0.01*xy
variable deltaxz equal -0.01*xz
variable deltayz equal -0.01*yz
change_box all y delta 0 -0.145028 yz delta 0.00642 remap units box
Changing box ...
  triclinic box = (0 0 0) to (15.2382 14.357772 17.0085) with tilt (-6.2627 -0.4482 -0.642)
  triclinic box = (0 0 0) to (15.2382 14.357772 17.0085) with tilt (-6.2627 -0.4482 -0.63558)

# Run MD for Negative deformation
# save trajectory
dump dump_neg2 all custom 100 dump/neg_deform2.lammpstrj id type x y z
run 2000
All restart file global fix info was re-assigned
Step          Temp          PotEng         Press        f_avgp[1]        Volume
0   307.18527     -41128.708      49708.085      0              3721.2319
Averages over the last 11 of 21 rows, steps 1000 to 2000:
Temp PotEng Press f_avgp[1] Volume
296.304 -41145.8 3530.08 556.241 3721.23
Loop time of 100.664 on 16 procs for 2000 steps with 350 atoms

undump dump_neg2

# Run equilibration
*****Equilibration neg2 starts.*****
include ff.mod.lmp
# Setup forcefield, system
# undefine any fix ave/* fix before using reset_timestep
if "$(is_defined(fix,avgp))" then "unfix avgp"
unfix avgp
reset_timestep 0

# Assign the force field
pair_style reaxff NULL safezone 3.0 mincap 150
# pair_coeff * * CHONSSi.ff O Si
# pair_coeff * * CHOSiNa.ff O Si
# pair_coeff * * SiOCHN_2018.ff O Si
# pair_coeff * * PDMSDecomp.ff Si O
pair_coeff * * CHONSi.ff C H O Si
# pair_coeff * * CHOFe.ff O Si

# charge method for reaxff
fix myqeq all qeq/reaxff 1 0.0 10.0 1.0e-6 reaxff maxiter 400
# Setup neighbor style
neighbor        2 bin
neigh_modify    every 10 delay 0 check no

# Setup output
fix avgp all ave/time  10 10 100 c_thermo_press mode vector
thermo		100
thermo_style custom step temp pe press f_avgp[1] vol
thermo_modify norm no

# NVT
fix 4 all nvt temp 300 300 50
run 2000
Step          Temp          PotEng         Press        f_avgp[1]        Volume
0   319.86783     -41152.6        3478.2225      0              3721.2319
Averages over the last 11 of 21 rows, steps 1000 to 2000:
Temp PotEng Press f_avgp[1] Volume
301.627 -41169.1 3291.31 176.75 3721.23
Loop time of 101.266 on 16 procs for 2000 steps with 350 atoms

# Obtain new stress tensor Negative deformation, convert index from LAMMPS to Voigt
variable pxx1 equal f_avgp[1]
variable pyy1 equal f_avgp[2]
variable pzz1 equal f_avgp[3]
variable pxy1 equal f_avgp[4]
variable pxz1 equal f_avgp[5]
variable pyz1 equal f_avgp[6]

# Compute elastic constant from pressure
# d1 = -[pxx1-pxx0]/[(]v_delta/v_len0] defined in input script
variable C1neg equal 69.9663688026142
variable C2neg equal 167.5919148195
variable C3neg equal 96.192999353535
variable C4neg equal -12.7358107160203
variable C5neg equal -2.59858887858606
variable C6neg equal -14.3776705399988

# Reset box and simulation parameters
clear
# box tilt large
read_restart equil.res
Reading restart file ...
  restart file = 2 Aug 2023, LAMMPS = 2 Aug 2023
  restoring atom style full from restart
  triclinic box = (0 0 0) to (15.2382 14.5028 17.0085) with tilt (-6.2627 -0.4482 -0.642)
  pair style reaxff stores no restart info
  350 atoms
Finding 1-2 1-3 1-4 neighbors ...
     0 = max # of 1-2 neighbors
     0 = max # of 1-3 neighbors
     0 = max # of 1-4 neighbors
     1 = max # of special neighbors
  read_restart CPU = 0.004 seconds
*****Positive-change 2 starts.*****
include ff.mod.lmp
# Setup forcefield, system
# undefine any fix ave/* fix before using reset_timestep
if "$(is_defined(fix,avgp))" then "unfix avgp"
reset_timestep 0

# Assign the force field
pair_style reaxff NULL safezone 3.0 mincap 150
# pair_coeff * * CHONSSi.ff O Si
# pair_coeff * * CHOSiNa.ff O Si
# pair_coeff * * SiOCHN_2018.ff O Si
# pair_coeff * * PDMSDecomp.ff Si O
pair_coeff * * CHONSi.ff C H O Si
# pair_coeff * * CHOFe.ff O Si

# charge method for reaxff
fix myqeq all qeq/reaxff 1 0.0 10.0 1.0e-6 reaxff maxiter 400
# Setup neighbor style
neighbor        2 bin
neigh_modify    every 10 delay 0 check no

# Setup output
fix avgp all ave/time  10 10 100 c_thermo_press mode vector
thermo		100
thermo_style custom step temp pe press f_avgp[1] vol
thermo_modify norm no

# NVT
fix 4 all nvt temp 300 300 50
  fix style: nvt, fix ID: 4

# Positive deformation
variable delta equal 0.01*14.5028
variable deltaxy equal 0.01*xy
variable deltaxz equal 0.01*xz
variable deltayz equal 0.01*yz
change_box all y delta 0 0.145028 yz delta -0.00642 remap units box
Changing box ...
  triclinic box = (0 0 0) to (15.2382 14.647828 17.0085) with tilt (-6.2627 -0.4482 -0.642)
  triclinic box = (0 0 0) to (15.2382 14.647828 17.0085) with tilt (-6.2627 -0.4482 -0.64842)

# Run positive deformation MD
# save trajectory
dump dump_pos2 all custom 100 dump/pos_deform2.lammpstrj id type x y z
run 2000
All restart file global fix info was re-assigned
Step          Temp          PotEng         Press        f_avgp[1]        Volume
0   307.18527     -41122.693     -57560.885      0              3796.4083
Averages over the last 11 of 21 rows, steps 1000 to 2000:
Temp PotEng Press f_avgp[1] Volume
303.932 -41157.2 -9192.79 -5752.16 3796.41
Loop time of 97.807 on 16 procs for 2000 steps with 350 atoms

undump dump_pos2

# Run equilibration
*****Equilibration pos2 starts.*****
include ff.mod.lmp
# Setup forcefield, system
# undefine any fix ave/* fix before using reset_timestep
if "$(is_defined(fix,avgp))" then "unfix avgp"
unfix avgp
reset_timestep 0

# Assign the force field
pair_style reaxff NULL safezone 3.0 mincap 150
# pair_coeff * * CHONSSi.ff O Si
# pair_coeff * * CHOSiNa.ff O Si
# pair_coeff * * SiOCHN_2018.ff O Si
# pair_coeff * * PDMSDecomp.ff Si O
pair_coeff * * CHONSi.ff C H O Si
# pair_coeff * * CHOFe.ff O Si

# charge method for reaxff
fix myqeq all qeq/reaxff 1 0.0 10.0 1.0e-6 reaxff maxiter 400
# Setup neighbor style
neighbor        2 bin
neigh_modify    every 10 delay 0 check no

# Setup output
fix avgp all ave/time  10 10 100 c_thermo_press mode vector
thermo		100
thermo_style custom step temp pe press f_avgp[1] vol
thermo_modify norm no

# NVT
fix 4 all nvt temp 300 300 50
run 2000
Step          Temp          PotEng         Press        f_avgp[1]        Volume
0   302.10978     -41157.644     -6855.8151      0              3796.4083
Averages over the last 11 of 21 rows, steps 1000 to 2000:
Temp PotEng Press f_avgp[1] Volume
303.255 -41156.1 -1627.73 -4485.77 3796.41
Loop time of 98.1657 on 16 procs for 2000 steps with 350 atoms

# Obtain new stress tensor, convert index from LAMMPS to Voigt
variable pxx1 equal f_avgp[1]
variable pyy1 equal f_avgp[2]
variable pzz1 equal f_avgp[3]
variable pxy1 equal f_avgp[4]
variable pxz1 equal f_avgp[5]
variable pyz1 equal f_avgp[6]

# Compute elastic constant from pressure tensor
# d1 = -[pxx1-pxx0]/[(]v_delta/v_len0] defined in input script
variable C1pos equal -45.2367833518445
variable C2pos equal 38.4945041365405
variable C3pos equal -66.8367076236424
variable C4pos equal 18.9625523119264
variable C5pos equal -19.2512479018829
variable C6pos equal 9.93981715522062

# Combine positive and negative
variable C12 equal 0.5*(69.9663688026142+-45.2367833518445)
variable C22 equal 0.5*(167.5919148195+38.4945041365405)
variable C32 equal 0.5*(96.192999353535+-66.8367076236424)
variable C42 equal 0.5*(-12.7358107160203+18.9625523119264)
variable C52 equal 0.5*(-2.59858887858606+-19.2512479018829)
variable C62 equal 0.5*(-14.3776705399988+9.93981715522062)

# Delete dir to make sure it is not reused
variable dir delete
# uzz Perturbation
variable dir equal 3
include displace.mod.lmp
# Find which reference length to use
variable len0 equal 17.0085

# Reset box and simulation parameters
clear
# box tilt large
read_restart equil.res
Reading restart file ...
  restart file = 2 Aug 2023, LAMMPS = 2 Aug 2023
  restoring atom style full from restart
  triclinic box = (0 0 0) to (15.2382 14.5028 17.0085) with tilt (-6.2627 -0.4482 -0.642)
  pair style reaxff stores no restart info
  350 atoms
Finding 1-2 1-3 1-4 neighbors ...
     0 = max # of 1-2 neighbors
     0 = max # of 1-3 neighbors
     0 = max # of 1-4 neighbors
     1 = max # of special neighbors
  read_restart CPU = 0.003 seconds
*****Negative-change 3 starts.*****
include ff.mod.lmp
# Setup forcefield, system
# undefine any fix ave/* fix before using reset_timestep
if "$(is_defined(fix,avgp))" then "unfix avgp"
reset_timestep 0

# Assign the force field
pair_style reaxff NULL safezone 3.0 mincap 150
# pair_coeff * * CHONSSi.ff O Si
# pair_coeff * * CHOSiNa.ff O Si
# pair_coeff * * SiOCHN_2018.ff O Si
# pair_coeff * * PDMSDecomp.ff Si O
pair_coeff * * CHONSi.ff C H O Si
# pair_coeff * * CHOFe.ff O Si

# charge method for reaxff
fix myqeq all qeq/reaxff 1 0.0 10.0 1.0e-6 reaxff maxiter 400
# Setup neighbor style
neighbor        2 bin
neigh_modify    every 10 delay 0 check no

# Setup output
fix avgp all ave/time  10 10 100 c_thermo_press mode vector
thermo		100
thermo_style custom step temp pe press f_avgp[1] vol
thermo_modify norm no

# NVT
fix 4 all nvt temp 300 300 50
  fix style: nvt, fix ID: 4

# Negative deformation
variable delta equal -0.01*17.0085
variable deltaxy equal -0.01*xy
variable deltaxz equal -0.01*xz
variable deltayz equal -0.01*yz
change_box all z delta 0 -0.170085 remap units box
Changing box ...
  triclinic box = (0 0 0) to (15.2382 14.5028 16.838415) with tilt (-6.2627 -0.4482 -0.642)

# Run MD for Negative deformation
# save trajectory
dump dump_neg3 all custom 100 dump/neg_deform3.lammpstrj id type x y z
run 2000
All restart file global fix info was re-assigned
Step          Temp          PotEng         Press        f_avgp[1]        Volume
0   307.18527     -41138.607      44530.764      0              3721.2319
Averages over the last 11 of 21 rows, steps 1000 to 2000:
Temp PotEng Press f_avgp[1] Volume
308.949 -41174.4 2910.3 -804.527 3721.23
Loop time of 100.851 on 16 procs for 2000 steps with 350 atoms

undump dump_neg3

# Run equilibration
*****Equilibration neg3 starts.*****
include ff.mod.lmp
# Setup forcefield, system
# undefine any fix ave/* fix before using reset_timestep
if "$(is_defined(fix,avgp))" then "unfix avgp"
unfix avgp
reset_timestep 0

# Assign the force field
pair_style reaxff NULL safezone 3.0 mincap 150
# pair_coeff * * CHONSSi.ff O Si
# pair_coeff * * CHOSiNa.ff O Si
# pair_coeff * * SiOCHN_2018.ff O Si
# pair_coeff * * PDMSDecomp.ff Si O
pair_coeff * * CHONSi.ff C H O Si
# pair_coeff * * CHOFe.ff O Si

# charge method for reaxff
fix myqeq all qeq/reaxff 1 0.0 10.0 1.0e-6 reaxff maxiter 400
# Setup neighbor style
neighbor        2 bin
neigh_modify    every 10 delay 0 check no

# Setup output
fix avgp all ave/time  10 10 100 c_thermo_press mode vector
thermo		100
thermo_style custom step temp pe press f_avgp[1] vol
thermo_modify norm no

# NVT
fix 4 all nvt temp 300 300 50
run 2000
Step          Temp          PotEng         Press        f_avgp[1]        Volume
0   302.04957     -41151.609     -2129.3679      0              3721.2319
Averages over the last 11 of 21 rows, steps 1000 to 2000:
Temp PotEng Press f_avgp[1] Volume
297.077 -41175.3 -4976.29 -4365.3 3721.23
Loop time of 100.782 on 16 procs for 2000 steps with 350 atoms

# Obtain new stress tensor Negative deformation, convert index from LAMMPS to Voigt
variable pxx1 equal f_avgp[1]
variable pyy1 equal f_avgp[2]
variable pzz1 equal f_avgp[3]
variable pxy1 equal f_avgp[4]
variable pxz1 equal f_avgp[5]
variable pyz1 equal f_avgp[6]

# Compute elastic constant from pressure
# d1 = -[pxx1-pxx0]/[(]v_delta/v_len0] defined in input script
variable C1neg equal 42.1216906115434
variable C2neg equal 40.8419848399738
variable C3neg equal 93.9996789773584
variable C4neg equal -2.85913627896398
variable C5neg equal 3.3269584210509
variable C6neg equal -10.4859671059347

# Reset box and simulation parameters
clear
# box tilt large
read_restart equil.res
Reading restart file ...
  restart file = 2 Aug 2023, LAMMPS = 2 Aug 2023
  restoring atom style full from restart
  triclinic box = (0 0 0) to (15.2382 14.5028 17.0085) with tilt (-6.2627 -0.4482 -0.642)
  pair style reaxff stores no restart info
  350 atoms
Finding 1-2 1-3 1-4 neighbors ...
     0 = max # of 1-2 neighbors
     0 = max # of 1-3 neighbors
     0 = max # of 1-4 neighbors
     1 = max # of special neighbors
  read_restart CPU = 0.004 seconds
*****Positive-change 3 starts.*****
include ff.mod.lmp
# Setup forcefield, system
# undefine any fix ave/* fix before using reset_timestep
if "$(is_defined(fix,avgp))" then "unfix avgp"
reset_timestep 0

# Assign the force field
pair_style reaxff NULL safezone 3.0 mincap 150
# pair_coeff * * CHONSSi.ff O Si
# pair_coeff * * CHOSiNa.ff O Si
# pair_coeff * * SiOCHN_2018.ff O Si
# pair_coeff * * PDMSDecomp.ff Si O
pair_coeff * * CHONSi.ff C H O Si
# pair_coeff * * CHOFe.ff O Si

# charge method for reaxff
fix myqeq all qeq/reaxff 1 0.0 10.0 1.0e-6 reaxff maxiter 400
# Setup neighbor style
neighbor        2 bin
neigh_modify    every 10 delay 0 check no

# Setup output
fix avgp all ave/time  10 10 100 c_thermo_press mode vector
thermo		100
thermo_style custom step temp pe press f_avgp[1] vol
thermo_modify norm no

# NVT
fix 4 all nvt temp 300 300 50
  fix style: nvt, fix ID: 4

# Positive deformation
variable delta equal 0.01*17.0085
variable deltaxy equal 0.01*xy
variable deltaxz equal 0.01*xz
variable deltayz equal 0.01*yz
change_box all z delta 0 0.170085 remap units box
Changing box ...
  triclinic box = (0 0 0) to (15.2382 14.5028 17.178585) with tilt (-6.2627 -0.4482 -0.642)

# Run positive deformation MD
# save trajectory
dump dump_pos3 all custom 100 dump/pos_deform3.lammpstrj id type x y z
run 2000
All restart file global fix info was re-assigned
Step          Temp          PotEng         Press        f_avgp[1]        Volume
0   307.18527     -41120.635     -53197.501      0              3796.4083
Averages over the last 11 of 21 rows, steps 1000 to 2000:
Temp PotEng Press f_avgp[1] Volume
303.587 -41160.2 -3705.1 -7056.3 3796.41
Loop time of 98.237 on 16 procs for 2000 steps with 350 atoms

undump dump_pos3

# Run equilibration
*****Equilibration pos3 starts.*****
include ff.mod.lmp
# Setup forcefield, system
# undefine any fix ave/* fix before using reset_timestep
if "$(is_defined(fix,avgp))" then "unfix avgp"
unfix avgp
reset_timestep 0

# Assign the force field
pair_style reaxff NULL safezone 3.0 mincap 150
# pair_coeff * * CHONSSi.ff O Si
# pair_coeff * * CHOSiNa.ff O Si
# pair_coeff * * SiOCHN_2018.ff O Si
# pair_coeff * * PDMSDecomp.ff Si O
pair_coeff * * CHONSi.ff C H O Si
# pair_coeff * * CHOFe.ff O Si

# charge method for reaxff
fix myqeq all qeq/reaxff 1 0.0 10.0 1.0e-6 reaxff maxiter 400
# Setup neighbor style
neighbor        2 bin
neigh_modify    every 10 delay 0 check no

# Setup output
fix avgp all ave/time  10 10 100 c_thermo_press mode vector
thermo		100
thermo_style custom step temp pe press f_avgp[1] vol
thermo_modify norm no

# NVT
fix 4 all nvt temp 300 300 50
run 2000
Step          Temp          PotEng         Press        f_avgp[1]        Volume
0   307.96778     -41168.373     -358.77323      0              3796.4083
Averages over the last 11 of 21 rows, steps 1000 to 2000:
Temp PotEng Press f_avgp[1] Volume
293.586 -41168.8 -4892.39 -6420.37 3796.41
Loop time of 98.2343 on 16 procs for 2000 steps with 350 atoms

# Obtain new stress tensor, convert index from LAMMPS to Voigt
variable pxx1 equal f_avgp[1]
variable pyy1 equal f_avgp[2]
variable pzz1 equal f_avgp[3]
variable pxy1 equal f_avgp[4]
variable pxz1 equal f_avgp[5]
variable pyz1 equal f_avgp[6]

# Compute elastic constant from pressure tensor
# d1 = -[pxx1-pxx0]/[(]v_delta/v_len0] defined in input script
variable C1pos equal -19.3621377606262
variable C2pos equal 28.3257059561448
variable C3pos equal -6.47250745371039
variable C4pos equal 4.47158606918994
variable C5pos equal -24.7287041795241
variable C6pos equal 10.2693709192525

# Combine positive and negative
variable C13 equal 0.5*(42.1216906115434+-19.3621377606262)
variable C23 equal 0.5*(40.8419848399738+28.3257059561448)
variable C33 equal 0.5*(93.9996789773584+-6.47250745371039)
variable C43 equal 0.5*(-2.85913627896398+4.47158606918994)
variable C53 equal 0.5*(3.3269584210509+-24.7287041795241)
variable C63 equal 0.5*(-10.4859671059347+10.2693709192525)

# Delete dir to make sure it is not reused
variable dir delete
# uyz Perturbation
variable dir equal 4
include displace.mod.lmp
# Find which reference length to use
variable len0 equal 17.0085

# Reset box and simulation parameters
clear
# box tilt large
read_restart equil.res
Reading restart file ...
  restart file = 2 Aug 2023, LAMMPS = 2 Aug 2023
  restoring atom style full from restart
  triclinic box = (0 0 0) to (15.2382 14.5028 17.0085) with tilt (-6.2627 -0.4482 -0.642)
  pair style reaxff stores no restart info
  350 atoms
Finding 1-2 1-3 1-4 neighbors ...
     0 = max # of 1-2 neighbors
     0 = max # of 1-3 neighbors
     0 = max # of 1-4 neighbors
     1 = max # of special neighbors
  read_restart CPU = 0.004 seconds
*****Negative-change 4 starts.*****
include ff.mod.lmp
# Setup forcefield, system
# undefine any fix ave/* fix before using reset_timestep
if "$(is_defined(fix,avgp))" then "unfix avgp"
reset_timestep 0

# Assign the force field
pair_style reaxff NULL safezone 3.0 mincap 150
# pair_coeff * * CHONSSi.ff O Si
# pair_coeff * * CHOSiNa.ff O Si
# pair_coeff * * SiOCHN_2018.ff O Si
# pair_coeff * * PDMSDecomp.ff Si O
pair_coeff * * CHONSi.ff C H O Si
# pair_coeff * * CHOFe.ff O Si

# charge method for reaxff
fix myqeq all qeq/reaxff 1 0.0 10.0 1.0e-6 reaxff maxiter 400
# Setup neighbor style
neighbor        2 bin
neigh_modify    every 10 delay 0 check no

# Setup output
fix avgp all ave/time  10 10 100 c_thermo_press mode vector
thermo		100
thermo_style custom step temp pe press f_avgp[1] vol
thermo_modify norm no

# NVT
fix 4 all nvt temp 300 300 50
  fix style: nvt, fix ID: 4

# Negative deformation
variable delta equal -0.01*17.0085
variable deltaxy equal -0.01*xy
variable deltaxz equal -0.01*xz
variable deltayz equal -0.01*yz
change_box all yz delta -0.170085 remap units box
Changing box ...
  triclinic box = (0 0 0) to (15.2382 14.5028 17.0085) with tilt (-6.2627 -0.4482 -0.812085)

# Run MD for Negative deformation
# save trajectory
dump dump_neg4 all custom 100 dump/neg_deform4.lammpstrj id type x y z
run 2000
All restart file global fix info was re-assigned
Step          Temp          PotEng         Press        f_avgp[1]        Volume
0   307.18527     -41142.854     -8392.9292      0              3758.8201
Averages over the last 11 of 21 rows, steps 1000 to 2000:
Temp PotEng Press f_avgp[1] Volume
297.552 -41150.9 3709.21 773.901 3758.82
Loop time of 99.9197 on 16 procs for 2000 steps with 350 atoms

undump dump_neg4

# Run equilibration
*****Equilibration neg4 starts.*****
include ff.mod.lmp
# Setup forcefield, system
# undefine any fix ave/* fix before using reset_timestep
if "$(is_defined(fix,avgp))" then "unfix avgp"
unfix avgp
reset_timestep 0

# Assign the force field
pair_style reaxff NULL safezone 3.0 mincap 150
# pair_coeff * * CHONSSi.ff O Si
# pair_coeff * * CHOSiNa.ff O Si
# pair_coeff * * SiOCHN_2018.ff O Si
# pair_coeff * * PDMSDecomp.ff Si O
pair_coeff * * CHONSi.ff C H O Si
# pair_coeff * * CHOFe.ff O Si

# charge method for reaxff
fix myqeq all qeq/reaxff 1 0.0 10.0 1.0e-6 reaxff maxiter 400
# Setup neighbor style
neighbor        2 bin
neigh_modify    every 10 delay 0 check no

# Setup output
fix avgp all ave/time  10 10 100 c_thermo_press mode vector
thermo		100
thermo_style custom step temp pe press f_avgp[1] vol
thermo_modify norm no

# NVT
fix 4 all nvt temp 300 300 50
run 2000
Step          Temp          PotEng         Press        f_avgp[1]        Volume
0   290.95567     -41158.673     -3320.8145      0              3758.8201
Averages over the last 11 of 21 rows, steps 1000 to 2000:
Temp PotEng Press f_avgp[1] Volume
297.399 -41168.1 -4950.83 771.898 3758.82
Loop time of 99.3606 on 16 procs for 2000 steps with 350 atoms

# Obtain new stress tensor Negative deformation, convert index from LAMMPS to Voigt
variable pxx1 equal f_avgp[1]
variable pyy1 equal f_avgp[2]
variable pzz1 equal f_avgp[3]
variable pxy1 equal f_avgp[4]
variable pxz1 equal f_avgp[5]
variable pyz1 equal f_avgp[6]

# Compute elastic constant from pressure
# d1 = -[pxx1-pxx0]/[(]v_delta/v_len0] defined in input script
variable C1neg equal 71.7706016863646
variable C2neg equal 50.5117354480398
variable C3neg equal 8.454420930553
variable C4neg equal 21.6686234765267
variable C5neg equal 8.03252228445597
variable C6neg equal 2.87639049983807

# Reset box and simulation parameters
clear
# box tilt large
read_restart equil.res
Reading restart file ...
  restart file = 2 Aug 2023, LAMMPS = 2 Aug 2023
  restoring atom style full from restart
  triclinic box = (0 0 0) to (15.2382 14.5028 17.0085) with tilt (-6.2627 -0.4482 -0.642)
  pair style reaxff stores no restart info
  350 atoms
Finding 1-2 1-3 1-4 neighbors ...
     0 = max # of 1-2 neighbors
     0 = max # of 1-3 neighbors
     0 = max # of 1-4 neighbors
     1 = max # of special neighbors
  read_restart CPU = 0.003 seconds
*****Positive-change 4 starts.*****
include ff.mod.lmp
# Setup forcefield, system
# undefine any fix ave/* fix before using reset_timestep
if "$(is_defined(fix,avgp))" then "unfix avgp"
reset_timestep 0

# Assign the force field
pair_style reaxff NULL safezone 3.0 mincap 150
# pair_coeff * * CHONSSi.ff O Si
# pair_coeff * * CHOSiNa.ff O Si
# pair_coeff * * SiOCHN_2018.ff O Si
# pair_coeff * * PDMSDecomp.ff Si O
pair_coeff * * CHONSi.ff C H O Si
# pair_coeff * * CHOFe.ff O Si

# charge method for reaxff
fix myqeq all qeq/reaxff 1 0.0 10.0 1.0e-6 reaxff maxiter 400
# Setup neighbor style
neighbor        2 bin
neigh_modify    every 10 delay 0 check no

# Setup output
fix avgp all ave/time  10 10 100 c_thermo_press mode vector
thermo		100
thermo_style custom step temp pe press f_avgp[1] vol
thermo_modify norm no

# NVT
fix 4 all nvt temp 300 300 50
  fix style: nvt, fix ID: 4

# Positive deformation
variable delta equal 0.01*17.0085
variable deltaxy equal 0.01*xy
variable deltaxz equal 0.01*xz
variable deltayz equal 0.01*yz
change_box all yz delta 0.170085 remap units box
Changing box ...
  triclinic box = (0 0 0) to (15.2382 14.5028 17.0085) with tilt (-6.2627 -0.4482 -0.471915)

# Run positive deformation MD
# save trajectory
dump dump_pos4 all custom 100 dump/pos_deform4.lammpstrj id type x y z
run 2000
All restart file global fix info was re-assigned
Step          Temp          PotEng         Press        f_avgp[1]        Volume
0   307.18527     -41141.58      -7462.5818      0              3758.8201
Averages over the last 11 of 21 rows, steps 1000 to 2000:
Temp PotEng Press f_avgp[1] Volume
296.685 -41170.9 -1045.87 -3732.24 3758.82
Loop time of 99.2235 on 16 procs for 2000 steps with 350 atoms

undump dump_pos4

# Run equilibration
*****Equilibration pos4 starts.*****
include ff.mod.lmp
# Setup forcefield, system
# undefine any fix ave/* fix before using reset_timestep
if "$(is_defined(fix,avgp))" then "unfix avgp"
unfix avgp
reset_timestep 0

# Assign the force field
pair_style reaxff NULL safezone 3.0 mincap 150
# pair_coeff * * CHONSSi.ff O Si
# pair_coeff * * CHOSiNa.ff O Si
# pair_coeff * * SiOCHN_2018.ff O Si
# pair_coeff * * PDMSDecomp.ff Si O
pair_coeff * * CHONSi.ff C H O Si
# pair_coeff * * CHOFe.ff O Si

# charge method for reaxff
fix myqeq all qeq/reaxff 1 0.0 10.0 1.0e-6 reaxff maxiter 400
# Setup neighbor style
neighbor        2 bin
neigh_modify    every 10 delay 0 check no

# Setup output
fix avgp all ave/time  10 10 100 c_thermo_press mode vector
thermo		100
thermo_style custom step temp pe press f_avgp[1] vol
thermo_modify norm no

# NVT
fix 4 all nvt temp 300 300 50
run 2000
Step          Temp          PotEng         Press        f_avgp[1]        Volume
0   300.82264     -41218.071      2160.1621      0              3758.8201
Averages over the last 11 of 21 rows, steps 1000 to 2000:
Temp PotEng Press f_avgp[1] Volume
295.503 -41196.7 -5844.13 -7145.68 3758.82
Loop time of 99.3945 on 16 procs for 2000 steps with 350 atoms

# Obtain new stress tensor, convert index from LAMMPS to Voigt
variable pxx1 equal f_avgp[1]
variable pyy1 equal f_avgp[2]
variable pzz1 equal f_avgp[3]
variable pxy1 equal f_avgp[4]
variable pxz1 equal f_avgp[5]
variable pyz1 equal f_avgp[6]

# Compute elastic constant from pressure tensor
# d1 = -[pxx1-pxx0]/[(]v_delta/v_len0] defined in input script
variable C1pos equal -4.55085324361401
variable C2pos equal -11.1520320172452
variable C3pos equal -60.5517496205502
variable C4pos equal 20.1740948888526
variable C5pos equal -3.89786088011541
variable C6pos equal 7.54815613129605

# Combine positive and negative
variable C14 equal 0.5*(71.7706016863646+-4.55085324361401)
variable C24 equal 0.5*(50.5117354480398+-11.1520320172452)
variable C34 equal 0.5*(8.454420930553+-60.5517496205502)
variable C44 equal 0.5*(21.6686234765267+20.1740948888526)
variable C54 equal 0.5*(8.03252228445597+-3.89786088011541)
variable C64 equal 0.5*(2.87639049983807+7.54815613129605)

# Delete dir to make sure it is not reused
variable dir delete
# uxz Perturbation
variable dir equal 5
include displace.mod.lmp
# Find which reference length to use
variable len0 equal 17.0085

# Reset box and simulation parameters
clear
# box tilt large
read_restart equil.res
Reading restart file ...
  restart file = 2 Aug 2023, LAMMPS = 2 Aug 2023
  restoring atom style full from restart
  triclinic box = (0 0 0) to (15.2382 14.5028 17.0085) with tilt (-6.2627 -0.4482 -0.642)
  pair style reaxff stores no restart info
  350 atoms
Finding 1-2 1-3 1-4 neighbors ...
     0 = max # of 1-2 neighbors
     0 = max # of 1-3 neighbors
     0 = max # of 1-4 neighbors
     1 = max # of special neighbors
  read_restart CPU = 0.004 seconds
*****Negative-change 5 starts.*****
include ff.mod.lmp
# Setup forcefield, system
# undefine any fix ave/* fix before using reset_timestep
if "$(is_defined(fix,avgp))" then "unfix avgp"
reset_timestep 0

# Assign the force field
pair_style reaxff NULL safezone 3.0 mincap 150
# pair_coeff * * CHONSSi.ff O Si
# pair_coeff * * CHOSiNa.ff O Si
# pair_coeff * * SiOCHN_2018.ff O Si
# pair_coeff * * PDMSDecomp.ff Si O
pair_coeff * * CHONSi.ff C H O Si
# pair_coeff * * CHOFe.ff O Si

# charge method for reaxff
fix myqeq all qeq/reaxff 1 0.0 10.0 1.0e-6 reaxff maxiter 400
# Setup neighbor style
neighbor        2 bin
neigh_modify    every 10 delay 0 check no

# Setup output
fix avgp all ave/time  10 10 100 c_thermo_press mode vector
thermo		100
thermo_style custom step temp pe press f_avgp[1] vol
thermo_modify norm no

# NVT
fix 4 all nvt temp 300 300 50
  fix style: nvt, fix ID: 4

# Negative deformation
variable delta equal -0.01*17.0085
variable deltaxy equal -0.01*xy
variable deltaxz equal -0.01*xz
variable deltayz equal -0.01*yz
change_box all xz delta -0.170085 remap units box
Changing box ...
  triclinic box = (0 0 0) to (15.2382 14.5028 17.0085) with tilt (-6.2627 -0.618285 -0.642)

# Run MD for Negative deformation
# save trajectory
dump dump_neg5 all custom 100 dump/neg_deform5.lammpstrj id type x y z
run 2000
All restart file global fix info was re-assigned
Step          Temp          PotEng         Press        f_avgp[1]        Volume
0   307.18527     -41144.779     -6801.1969      0              3758.8201
Averages over the last 11 of 21 rows, steps 1000 to 2000:
Temp PotEng Press f_avgp[1] Volume
304.356 -41167.6 -6790.09 -6711.22 3758.82
Loop time of 99.026 on 16 procs for 2000 steps with 350 atoms

undump dump_neg5

# Run equilibration
*****Equilibration neg5 starts.*****
include ff.mod.lmp
# Setup forcefield, system
# undefine any fix ave/* fix before using reset_timestep
if "$(is_defined(fix,avgp))" then "unfix avgp"
unfix avgp
reset_timestep 0

# Assign the force field
pair_style reaxff NULL safezone 3.0 mincap 150
# pair_coeff * * CHONSSi.ff O Si
# pair_coeff * * CHOSiNa.ff O Si
# pair_coeff * * SiOCHN_2018.ff O Si
# pair_coeff * * PDMSDecomp.ff Si O
pair_coeff * * CHONSi.ff C H O Si
# pair_coeff * * CHOFe.ff O Si

# charge method for reaxff
fix myqeq all qeq/reaxff 1 0.0 10.0 1.0e-6 reaxff maxiter 400
# Setup neighbor style
neighbor        2 bin
neigh_modify    every 10 delay 0 check no

# Setup output
fix avgp all ave/time  10 10 100 c_thermo_press mode vector
thermo		100
thermo_style custom step temp pe press f_avgp[1] vol
thermo_modify norm no

# NVT
fix 4 all nvt temp 300 300 50
run 2000
Step          Temp          PotEng         Press        f_avgp[1]        Volume
0   290.88058     -41164.94      -20067.399      0              3758.8201
Averages over the last 11 of 21 rows, steps 1000 to 2000:
Temp PotEng Press f_avgp[1] Volume
298.504 -41160.3 -4641.44 -5919.42 3758.82
Loop time of 99.5235 on 16 procs for 2000 steps with 350 atoms

# Obtain new stress tensor Negative deformation, convert index from LAMMPS to Voigt
variable pxx1 equal f_avgp[1]
variable pyy1 equal f_avgp[2]
variable pzz1 equal f_avgp[3]
variable pxy1 equal f_avgp[4]
variable pxz1 equal f_avgp[5]
variable pyz1 equal f_avgp[6]

# Compute elastic constant from pressure
# d1 = -[pxx1-pxx0]/[(]v_delta/v_len0] defined in input script
variable C1neg equal 0.306276963205875
variable C2neg equal -0.561796536851376
variable C3neg equal 14.3346519076937
variable C4neg equal -17.2830410631128
variable C5neg equal 42.7206871270045
variable C6neg equal 7.85976772375726

# Reset box and simulation parameters
clear
# box tilt large
read_restart equil.res
Reading restart file ...
  restart file = 2 Aug 2023, LAMMPS = 2 Aug 2023
  restoring atom style full from restart
  triclinic box = (0 0 0) to (15.2382 14.5028 17.0085) with tilt (-6.2627 -0.4482 -0.642)
  pair style reaxff stores no restart info
  350 atoms
Finding 1-2 1-3 1-4 neighbors ...
     0 = max # of 1-2 neighbors
     0 = max # of 1-3 neighbors
     0 = max # of 1-4 neighbors
     1 = max # of special neighbors
  read_restart CPU = 0.003 seconds
*****Positive-change 5 starts.*****
include ff.mod.lmp
# Setup forcefield, system
# undefine any fix ave/* fix before using reset_timestep
if "$(is_defined(fix,avgp))" then "unfix avgp"
reset_timestep 0

# Assign the force field
pair_style reaxff NULL safezone 3.0 mincap 150
# pair_coeff * * CHONSSi.ff O Si
# pair_coeff * * CHOSiNa.ff O Si
# pair_coeff * * SiOCHN_2018.ff O Si
# pair_coeff * * PDMSDecomp.ff Si O
pair_coeff * * CHONSi.ff C H O Si
# pair_coeff * * CHOFe.ff O Si

# charge method for reaxff
fix myqeq all qeq/reaxff 1 0.0 10.0 1.0e-6 reaxff maxiter 400
# Setup neighbor style
neighbor        2 bin
neigh_modify    every 10 delay 0 check no

# Setup output
fix avgp all ave/time  10 10 100 c_thermo_press mode vector
thermo		100
thermo_style custom step temp pe press f_avgp[1] vol
thermo_modify norm no

# NVT
fix 4 all nvt temp 300 300 50
  fix style: nvt, fix ID: 4

# Positive deformation
variable delta equal 0.01*17.0085
variable deltaxy equal 0.01*xy
variable deltaxz equal 0.01*xz
variable deltayz equal 0.01*yz
change_box all xz delta 0.170085 remap units box
Changing box ...
  triclinic box = (0 0 0) to (15.2382 14.5028 17.0085) with tilt (-6.2627 -0.278115 -0.642)

# Run positive deformation MD
# save trajectory
dump dump_pos5 all custom 100 dump/pos_deform5.lammpstrj id type x y z
run 2000
All restart file global fix info was re-assigned
Step          Temp          PotEng         Press        f_avgp[1]        Volume
0   307.18527     -41139.024     -9501.6989      0              3758.8201
Averages over the last 11 of 21 rows, steps 1000 to 2000:
Temp PotEng Press f_avgp[1] Volume
304.527 -41160 2938.03 -1744.14 3758.82
Loop time of 99.2386 on 16 procs for 2000 steps with 350 atoms

undump dump_pos5

# Run equilibration
*****Equilibration pos5 starts.*****
include ff.mod.lmp
# Setup forcefield, system
# undefine any fix ave/* fix before using reset_timestep
if "$(is_defined(fix,avgp))" then "unfix avgp"
unfix avgp
reset_timestep 0

# Assign the force field
pair_style reaxff NULL safezone 3.0 mincap 150
# pair_coeff * * CHONSSi.ff O Si
# pair_coeff * * CHOSiNa.ff O Si
# pair_coeff * * SiOCHN_2018.ff O Si
# pair_coeff * * PDMSDecomp.ff Si O
pair_coeff * * CHONSi.ff C H O Si
# pair_coeff * * CHOFe.ff O Si

# charge method for reaxff
fix myqeq all qeq/reaxff 1 0.0 10.0 1.0e-6 reaxff maxiter 400
# Setup neighbor style
neighbor        2 bin
neigh_modify    every 10 delay 0 check no

# Setup output
fix avgp all ave/time  10 10 100 c_thermo_press mode vector
thermo		100
thermo_style custom step temp pe press f_avgp[1] vol
thermo_modify norm no

# NVT
fix 4 all nvt temp 300 300 50
run 2000
Step          Temp          PotEng         Press        f_avgp[1]        Volume
0   303.42866     -41161.769      205.8834       0              3758.8201
Averages over the last 11 of 21 rows, steps 1000 to 2000:
Temp PotEng Press f_avgp[1] Volume
305.623 -41165.4 -1078.94 -2542.55 3758.82
Loop time of 99.9664 on 16 procs for 2000 steps with 350 atoms

# Obtain new stress tensor, convert index from LAMMPS to Voigt
variable pxx1 equal f_avgp[1]
variable pyy1 equal f_avgp[2]
variable pzz1 equal f_avgp[3]
variable pxy1 equal f_avgp[4]
variable pxz1 equal f_avgp[5]
variable pyz1 equal f_avgp[6]

# Compute elastic constant from pressure tensor
# d1 = -[pxx1-pxx0]/[(]v_delta/v_len0] defined in input script
variable C1pos equal -53.0571371796291
variable C2pos equal -34.0631684088375
variable C3pos equal -51.4519831160851
variable C4pos equal 4.20682955650364
variable C5pos equal 9.8114744838153
variable C6pos equal -10.4753173775788

# Combine positive and negative
variable C15 equal 0.5*(0.306276963205875+-53.0571371796291)
variable C25 equal 0.5*(-0.561796536851376+-34.0631684088375)
variable C35 equal 0.5*(14.3346519076937+-51.4519831160851)
variable C45 equal 0.5*(-17.2830410631128+4.20682955650364)
variable C55 equal 0.5*(42.7206871270045+9.8114744838153)
variable C65 equal 0.5*(7.85976772375726+-10.4753173775788)

# Delete dir to make sure it is not reused
variable dir delete
# uxy Perturbation
variable dir equal 6
include displace.mod.lmp
# Find which reference length to use
variable len0 equal 14.5028

# Reset box and simulation parameters
clear
# box tilt large
read_restart equil.res
Reading restart file ...
  restart file = 2 Aug 2023, LAMMPS = 2 Aug 2023
  restoring atom style full from restart
  triclinic box = (0 0 0) to (15.2382 14.5028 17.0085) with tilt (-6.2627 -0.4482 -0.642)
  pair style reaxff stores no restart info
  350 atoms
Finding 1-2 1-3 1-4 neighbors ...
     0 = max # of 1-2 neighbors
     0 = max # of 1-3 neighbors
     0 = max # of 1-4 neighbors
     1 = max # of special neighbors
  read_restart CPU = 0.004 seconds
*****Negative-change 6 starts.*****
include ff.mod.lmp
# Setup forcefield, system
# undefine any fix ave/* fix before using reset_timestep
if "$(is_defined(fix,avgp))" then "unfix avgp"
reset_timestep 0

# Assign the force field
pair_style reaxff NULL safezone 3.0 mincap 150
# pair_coeff * * CHONSSi.ff O Si
# pair_coeff * * CHOSiNa.ff O Si
# pair_coeff * * SiOCHN_2018.ff O Si
# pair_coeff * * PDMSDecomp.ff Si O
pair_coeff * * CHONSi.ff C H O Si
# pair_coeff * * CHOFe.ff O Si

# charge method for reaxff
fix myqeq all qeq/reaxff 1 0.0 10.0 1.0e-6 reaxff maxiter 400
# Setup neighbor style
neighbor        2 bin
neigh_modify    every 10 delay 0 check no

# Setup output
fix avgp all ave/time  10 10 100 c_thermo_press mode vector
thermo		100
thermo_style custom step temp pe press f_avgp[1] vol
thermo_modify norm no

# NVT
fix 4 all nvt temp 300 300 50
  fix style: nvt, fix ID: 4

# Negative deformation
variable delta equal -0.01*14.5028
variable deltaxy equal -0.01*xy
variable deltaxz equal -0.01*xz
variable deltayz equal -0.01*yz
change_box all xy delta -0.145028 remap units box
Changing box ...
  triclinic box = (0 0 0) to (15.2382 14.5028 17.0085) with tilt (-6.407728 -0.4482 -0.642)

# Run MD for Negative deformation
# save trajectory
dump dump_neg6 all custom 100 dump/neg_deform6.lammpstrj id type x y z
run 2000
All restart file global fix info was re-assigned
Step          Temp          PotEng         Press        f_avgp[1]        Volume
0   307.18527     -41142.925     -6940.133       0              3758.8201
Averages over the last 11 of 21 rows, steps 1000 to 2000:
Temp PotEng Press f_avgp[1] Volume
296.456 -41149.1 -651.001 -1535.39 3758.82
Loop time of 99.8984 on 16 procs for 2000 steps with 350 atoms

undump dump_neg6

# Run equilibration
*****Equilibration neg6 starts.*****
include ff.mod.lmp
# Setup forcefield, system
# undefine any fix ave/* fix before using reset_timestep
if "$(is_defined(fix,avgp))" then "unfix avgp"
unfix avgp
reset_timestep 0

# Assign the force field
pair_style reaxff NULL safezone 3.0 mincap 150
# pair_coeff * * CHONSSi.ff O Si
# pair_coeff * * CHOSiNa.ff O Si
# pair_coeff * * SiOCHN_2018.ff O Si
# pair_coeff * * PDMSDecomp.ff Si O
pair_coeff * * CHONSi.ff C H O Si
# pair_coeff * * CHOFe.ff O Si

# charge method for reaxff
fix myqeq all qeq/reaxff 1 0.0 10.0 1.0e-6 reaxff maxiter 400
# Setup neighbor style
neighbor        2 bin
neigh_modify    every 10 delay 0 check no

# Setup output
fix avgp all ave/time  10 10 100 c_thermo_press mode vector
thermo		100
thermo_style custom step temp pe press f_avgp[1] vol
thermo_modify norm no

# NVT
fix 4 all nvt temp 300 300 50
run 2000
Step          Temp          PotEng         Press        f_avgp[1]        Volume
0   293.75244     -41143.498      2321.9279      0              3758.8201
Averages over the last 11 of 21 rows, steps 1000 to 2000:
Temp PotEng Press f_avgp[1] Volume
299.615 -41172.7 3597.99 -3223.84 3758.82
Loop time of 100.61 on 16 procs for 2000 steps with 350 atoms

# Obtain new stress tensor Negative deformation, convert index from LAMMPS to Voigt
variable pxx1 equal f_avgp[1]
variable pyy1 equal f_avgp[2]
variable pzz1 equal f_avgp[3]
variable pxy1 equal f_avgp[4]
variable pxz1 equal f_avgp[5]
variable pyz1 equal f_avgp[6]

# Compute elastic constant from pressure
# d1 = -[pxx1-pxx0]/[(]v_delta/v_len0] defined in input script
variable C1neg equal 5.18095259524055
variable C2neg equal 42.4689714689317
variable C3neg equal 53.3215188218769
variable C4neg equal -1.3783741035326
variable C5neg equal 3.70847498047628
variable C6neg equal -2.63470717760895

# Reset box and simulation parameters
clear
# box tilt large
read_restart equil.res
Reading restart file ...
  restart file = 2 Aug 2023, LAMMPS = 2 Aug 2023
  restoring atom style full from restart
  triclinic box = (0 0 0) to (15.2382 14.5028 17.0085) with tilt (-6.2627 -0.4482 -0.642)
  pair style reaxff stores no restart info
  350 atoms
Finding 1-2 1-3 1-4 neighbors ...
     0 = max # of 1-2 neighbors
     0 = max # of 1-3 neighbors
     0 = max # of 1-4 neighbors
     1 = max # of special neighbors
  read_restart CPU = 0.003 seconds
*****Positive-change 6 starts.*****
include ff.mod.lmp
# Setup forcefield, system
# undefine any fix ave/* fix before using reset_timestep
if "$(is_defined(fix,avgp))" then "unfix avgp"
reset_timestep 0

# Assign the force field
pair_style reaxff NULL safezone 3.0 mincap 150
# pair_coeff * * CHONSSi.ff O Si
# pair_coeff * * CHOSiNa.ff O Si
# pair_coeff * * SiOCHN_2018.ff O Si
# pair_coeff * * PDMSDecomp.ff Si O
pair_coeff * * CHONSi.ff C H O Si
# pair_coeff * * CHOFe.ff O Si

# charge method for reaxff
fix myqeq all qeq/reaxff 1 0.0 10.0 1.0e-6 reaxff maxiter 400
# Setup neighbor style
neighbor        2 bin
neigh_modify    every 10 delay 0 check no

# Setup output
fix avgp all ave/time  10 10 100 c_thermo_press mode vector
thermo		100
thermo_style custom step temp pe press f_avgp[1] vol
thermo_modify norm no

# NVT
fix 4 all nvt temp 300 300 50
  fix style: nvt, fix ID: 4

# Positive deformation
variable delta equal 0.01*14.5028
variable deltaxy equal 0.01*xy
variable deltaxz equal 0.01*xz
variable deltayz equal 0.01*yz
change_box all xy delta 0.145028 remap units box
Changing box ...
  triclinic box = (0 0 0) to (15.2382 14.5028 17.0085) with tilt (-6.117672 -0.4482 -0.642)

# Run positive deformation MD
# save trajectory
dump dump_pos6 all custom 100 dump/pos_deform6.lammpstrj id type x y z
run 2000
All restart file global fix info was re-assigned
Step          Temp          PotEng         Press        f_avgp[1]        Volume
0   307.18527     -41142.113     -9172.9426      0              3758.8201
Averages over the last 11 of 21 rows, steps 1000 to 2000:
Temp PotEng Press f_avgp[1] Volume
297.473 -41156.3 -4703.22 -5154.57 3758.82
Loop time of 92.6341 on 16 procs for 2000 steps with 350 atoms

undump dump_pos6

# Run equilibration
*****Equilibration pos6 starts.*****
include ff.mod.lmp
# Setup forcefield, system
# undefine any fix ave/* fix before using reset_timestep
if "$(is_defined(fix,avgp))" then "unfix avgp"
unfix avgp
reset_timestep 0

# Assign the force field
pair_style reaxff NULL safezone 3.0 mincap 150
# pair_coeff * * CHONSSi.ff O Si
# pair_coeff * * CHOSiNa.ff O Si
# pair_coeff * * SiOCHN_2018.ff O Si
# pair_coeff * * PDMSDecomp.ff Si O
pair_coeff * * CHONSi.ff C H O Si
# pair_coeff * * CHOFe.ff O Si

# charge method for reaxff
fix myqeq all qeq/reaxff 1 0.0 10.0 1.0e-6 reaxff maxiter 400
# Setup neighbor style
neighbor        2 bin
neigh_modify    every 10 delay 0 check no

# Setup output
fix avgp all ave/time  10 10 100 c_thermo_press mode vector
thermo		100
thermo_style custom step temp pe press f_avgp[1] vol
thermo_modify norm no

# NVT
fix 4 all nvt temp 300 300 50
run 2000
Step          Temp          PotEng         Press        f_avgp[1]        Volume
0   294.14244     -41154.483     -8263.5982      0              3758.8201
Averages over the last 11 of 21 rows, steps 1000 to 2000:
Temp PotEng Press f_avgp[1] Volume
294.54 -41178.1 -7102.14 -5202.77 3758.82
Loop time of 91.5883 on 16 procs for 2000 steps with 350 atoms

# Obtain new stress tensor, convert index from LAMMPS to Voigt
variable pxx1 equal f_avgp[1]
variable pyy1 equal f_avgp[2]
variable pzz1 equal f_avgp[3]
variable pxy1 equal f_avgp[4]
variable pxz1 equal f_avgp[5]
variable pyz1 equal f_avgp[6]

# Compute elastic constant from pressure tensor
# d1 = -[pxx1-pxx0]/[(]v_delta/v_len0] defined in input script
variable C1pos equal -48.096133143661
variable C2pos equal -0.423317443699822
variable C3pos equal -81.7756658401075
variable C4pos equal -0.691044777212095
variable C5pos equal -3.9128344821562
variable C6pos equal 29.7137438237466

# Combine positive and negative
variable C16 equal 0.5*(5.18095259524055+-48.096133143661)
variable C26 equal 0.5*(42.4689714689317+-0.423317443699822)
variable C36 equal 0.5*(53.3215188218769+-81.7756658401075)
variable C46 equal 0.5*(-1.3783741035326+-0.691044777212095)
variable C56 equal 0.5*(3.70847498047628+-3.9128344821562)
variable C66 equal 0.5*(-2.63470717760895+29.7137438237466)

# Delete dir to make sure it is not reused
variable dir delete

# Calc and output
include calc.mod.lmp
variable C11all equal 7.55332288783447
variable C22all equal 103.04320947802
variable C33all equal 43.763585761824

variable C44all equal 20.9213591826896
variable C55all equal 26.2660808054099
variable C66all equal 13.5395183230688

variable C12all equal 0.5*(12.3647927253848+21.3821379480037)
variable C13all equal 0.5*(11.3797764254586+37.5941284598972)
variable C23all equal 0.5*(34.5838453980593+14.6781458649463)

variable C14all equal 0.5*(33.6098742213753+4.18424246796995)
variable C15all equal 0.5*(-26.3754301082116+2.42986876753955)
variable C16all equal 0.5*(-21.4575902742102+9.5897247608721)

variable C24all equal 0.5*(19.6798517153973+3.11337079795305)
variable C25all equal 0.5*(-17.3124824728444+-10.9249183902345)
variable C26all equal 0.5*(21.0228270126159+-2.21892669238909)

variable C34all equal 0.5*(-26.0486643449986+0.80622489511298)
variable C35all equal 0.5*(-18.5586656041957+-10.7008728792366)
variable C36all equal 0.5*(-14.2270735091153+-0.1082980933411)

variable C45all equal 0.5*(-6.53810575330458+2.06733070217028)
variable C46all equal 0.5*(-1.03470944037235+5.21227331556706)
variable C56all equal 0.5*(-0.10217975083996+-1.30777482691077)

# print stiffness tensor to "C.log"
print """
"""  file C.log screen no
