LAMMPS (2 Aug 2023 - Update 2)
# Initialization
units           real
dimension       3
boundary        p p p
atom_style      full
timestep        0.5   # fs
neighbor        2 bin
neigh_modify    every 10 delay 0 check no

variable nequil equal 1000
variable nrun equal 2000

# Read the initial sctructure
read_data       333SiO2-1-UFF-m-c.data
Reading data file ...
  triclinic box = (0 0 0) to (17.6913 17.6913 18.9631) with tilt (-8.84565 0 0)
  reading atoms ...
  243 atoms
Finding 1-2 1-3 1-4 neighbors ...
     0 = max # of 1-2 neighbors
     0 = max # of 1-3 neighbors
     0 = max # of 1-4 neighbors
     1 = max # of special neighbors

# Assign the force field
pair_style reaxff NULL safezone 3.0 mincap 150
# pair_coeff * * CHONSSi.ff O Si
# pair_coeff * * CHOSiNa.ff O Si
pair_coeff * * SiOCHN_2018.ff O Si
# pair_coeff * * PDMSDecomp.ff Si O
# pair_coeff * * CHOFe.ff O Si

fix myqeq all qeq/reaxff 1 0.0 10.0 1.0e-6 reaxff maxiter 400

# Print system info
thermo          100
thermo_style    custom step temp press density pe etotal
# Save trajectory
#dump dump1 all custom 500 dump_opt.lammpstrj id type x y z q
dump dump1 all custom 200 dump_all.lammpstrj   id   type   x   y   z   q

# Energy minimization
print "*****Minimization starts.*****"
*****Minimization starts.*****
fix min1 all nve
minimize 1.0e-6 1.0e-6 100 1000

CITE-CITE-CITE-CITE-CITE-CITE-CITE-CITE-CITE-CITE-CITE-CITE-CITE

Your simulation uses code contributions which should be cited:

- pair reaxff command: doi:10.1016/j.parco.2011.08.005

@Article{Aktulga12,
 author = {H. M. Aktulga and J. C. Fogarty and S. A. Pandit and A. Y. Grama},
 title = {Parallel Reactive Molecular Dynamics: {N}umerical Methods and Algorithmic Techniques},
 journal = {Parallel Computing},
 year =    2012,
 volume =  38,
 number =  {4--5},
 pages =   {245--259}
}

- fix qeq/reaxff command: doi:10.1016/j.parco.2011.08.005

@Article{Aktulga12,
 author = {H. M. Aktulga and J. C. Fogarty and S. A. Pandit and A. Y. Grama},
 title = {Parallel Reactive Molecular Dynamics: {N}umerical Methods and Algorithmic Techniques},
 journal = {Parallel Computing},
 year =    2012,
 volume =  38,
 pages =   {245--259}
}

CITE-CITE-CITE-CITE-CITE-CITE-CITE-CITE-CITE-CITE-CITE-CITE-CITE

Step          Temp          Press         Density         PotEng         TotEng
0   0              30911.969      1.4518191     -30416.687     -30416.687
Loop time of 3.26619 on 64 procs for 41 steps with 243 atoms

Minimization stats:
  Stopping criterion = energy tolerance
  Energy initial, next-to-last, final =
  Force two-norm initial, final = 402.42858 482.30816
  Force max component initial, final = 116.76206 191.51893
  Final line search alpha, max atom move = 1.1663713e-11 2.2338218e-09
  Iterations, force evaluations = 41 295

unfix min1
# Save the optimized structure
write_data opt.data
System init for write_data ...
# Save trajectory
# dump dump_equil all custom 500 dump_equil.lammpstrj id type x y z q

# equilibration at 300K
print "*****Equilibration starts.*****"
*****Equilibration starts.*****
velocity        all create 300.0 12345
fix             equil1 all nvt temp 300.0 300.0 50.0
# 1 ps : 1e3 fs / 0.5 fs = 2e3 steps
run             1000
Step          Temp          Press         Density         PotEng         TotEng
41   300            13106.734      1.4518191     -30610.649     -30394.243
Averages over the last 6 of 12 rows, steps 600 to 1041:
Temp Press Density PotEng TotEng
311.293 -1887.8 1.45182 -31108.6 -30884
Loop time of 12.1509 on 64 procs for 1000 steps with 243 atoms

# Save trajectory
# dump dump2 all custom 500 dump_heat.lammpstrj id type x y z q

# Heat to 600K
print "*****Heat starts.*****"
*****Heat starts.*****
unfix           equil1
fix             heat1 all npt temp 300.0 600.0 100.0 iso 1.0 1.0 100.0
# 1 ps : 1e3 fs / 0.5 fs = 2e3 steps
run             2000
Step          Temp          Press         Density         PotEng         TotEng
1041   275.55152      4108.1082      1.4518191     -31162.678     -30963.908
Averages over the last 11 of 22 rows, steps 2100 to 3041:
Temp Press Density PotEng TotEng
629.286 1128.66 1.70596 -32038.6 -31584.6
Loop time of 39.5819 on 64 procs for 2000 steps with 243 atoms

# Save trajectory
# dump dump3 all custom 500 dump_cool.lammpstrj id type x y z q

# cool down to 300K
print "*****Cool starts.*****"
*****Cool starts.*****
unfix           heat1
fix             cool1 all npt temp 600.0 300.0 100.0 iso 1.0 1.0 100.0
# 1 ps : 1e3 fs / 0.5 fs = 2e3 steps
run             2000
Step          Temp          Press         Density         PotEng         TotEng
3041   651.21878      1918.0919      1.8911158     -32355.486     -31885.725
Averages over the last 11 of 22 rows, steps 4100 to 5041:
Temp Press Density PotEng TotEng
421.818 -1773.21 2.23535 -33879.1 -33574.9
Loop time of 51.2289 on 64 procs for 2000 steps with 243 atoms

# equilibration at 300K
print "*****Equilibration starts.*****"
*****Equilibration starts.*****
velocity        all create 300.0 12345
unfix             cool1
fix             equil2 all nvt temp 300.0 300.0 50.0
fix fbonds all reax/c/bonds 100 bonds.reaxc

# 1 ps : 1e3 fs / 0.5 fs = 2e3 steps
run             2000
Step          Temp          Press         Density         PotEng         TotEng
5041   300           -930.46657      2.2715492     -34041.196     -33824.79
Averages over the last 11 of 22 rows, steps 6100 to 7041:
Temp Press Density PotEng TotEng
318.527 -1190.12 2.27155 -34145.3 -33915.5
Loop time of 36.9344 on 64 procs for 2000 steps with 243 atoms

write_data final.data
System init for write_data ...
print "*****Done.*****"
*****Done.*****
