
#======================================================================
# CRYSTAL DATA
#----------------------------------------------------------------------
data_VESTA_phase_1

_chemical_name_common                  '333-TEST-11                           '
_cell_length_a                         15.037150
_cell_length_b                         15.400128
_cell_length_c                         17.608295
_cell_angle_alpha                      89.519547
_cell_angle_beta                       90.515846
_cell_angle_gamma                      119.114853
_cell_volume                           3562.218769
_space_group_name_H-M_alt              'P 1'
_space_group_IT_number                 1

loop_
_space_group_symop_operation_xyz
   'x, y, z'

loop_
   _atom_site_label
   _atom_site_occupancy
   _atom_site_fract_x
   _atom_site_fract_y
   _atom_site_fract_z
   _atom_site_adp_type
   _atom_site_U_iso_or_equiv
   _atom_site_type_symbol
   Si1        1.0     0.154500     0.001810     0.136061    Uiso  ? Si
   Si2        1.0     0.982842     0.150049     0.205010    Uiso  ? Si
   Si3        1.0     0.151690     0.162283     0.033212    Uiso  ? Si
   Si4        1.0     0.132797     0.972489     0.431971    Uiso  ? Si
   Si5        1.0     0.120478     0.121412     0.319848    Uiso  ? Si
   Si6        1.0     0.005433     0.169811     0.909399    Uiso  ? Si
   Si7        1.0     0.180570     0.326858     0.137677    Uiso  ? Si
   Si8        1.0     0.007534     0.514687     0.221564    Uiso  ? Si
   Si9        1.0     0.175150     0.490887     0.026885    Uiso  ? Si
   Si10       1.0     0.153303     0.315968     0.407073    Uiso  ? Si
   Si11       1.0    -0.012855     0.487931     0.548104    Uiso  ? Si
   Si12       1.0     0.182844     0.502246     0.312607    Uiso  ? Si
   Si13       1.0     0.146961     0.338075     0.796976    Uiso  ? Si
   Si14       1.0     0.144824     0.462812     0.659859    Uiso  ? Si
   Si15       1.0     0.162394     0.668117     0.115398    Uiso  ? Si
   Si16       1.0     0.998087     0.834878     0.235071    Uiso  ? Si
   Si17       1.0     0.147416     0.839385     0.019395    Uiso  ? Si
   Si18       1.0     0.159376     0.642560     0.436546    Uiso  ? Si
   Si19       1.0     0.992209     0.795695     0.540183    Uiso  ? Si
   Si20       1.0     0.156233     0.816041     0.336793    Uiso  ? Si
   Si21       1.0     0.980856     0.807391     0.902116    Uiso  ? Si
   Si22       1.0     0.171591     0.833399     0.622099    Uiso  ? Si
   Si23       1.0     0.489000     0.992879     0.122395    Uiso  ? Si
   Si24       1.0     0.321156     0.149477     0.241726    Uiso  ? Si
   Si25       1.0     0.528406     0.149431     0.008781    Uiso  ? Si
   Si26       1.0     0.500692     0.959030     0.425513    Uiso  ? Si
   Si27       1.0     0.322889     0.145619     0.527656    Uiso  ? Si
   Si28       1.0     0.484959     0.133574     0.334643    Uiso  ? Si
   Si29       1.0     0.419561    -0.003406     0.766305    Uiso  ? Si
   Si30       1.0     0.346733     0.472573     0.239234    Uiso  ? Si
   Si31       1.0     0.503026     0.526516     0.979034    Uiso  ? Si
   Si32       1.0     0.509107     0.306384     0.440867    Uiso  ? Si
   Si33       1.0     0.520604     0.491328     0.346512    Uiso  ? Si
   Si34       1.0     0.528151     0.380247     0.791650    Uiso  ? Si
   Si35       1.0     0.322149     0.519347     0.885590    Uiso  ? Si
   Si36       1.0     0.497474     0.634045     0.129551    Uiso  ? Si
   Si37       1.0     0.325095     0.826921     0.228406    Uiso  ? Si
   Si38       1.0     0.483590     0.864613     0.982690    Uiso  ? Si
   Si39       1.0     0.491903     0.654441     0.428408    Uiso  ? Si
   Si40       1.0     0.330217     0.808139     0.531551    Uiso  ? Si
   Si41       1.0     0.507401     0.815846     0.312131    Uiso  ? Si
   Si42       1.0     0.454154     0.698184     0.785314    Uiso  ? Si
   Si43       1.0     0.301191     0.860523     0.899370    Uiso  ? Si
   Si44       1.0     0.456584     0.852503     0.677086    Uiso  ? Si
   Si45       1.0     0.821259     0.965729     0.110160    Uiso  ? Si
   Si46       1.0     0.655447     0.158712     0.225805    Uiso  ? Si
   Si47       1.0     0.855760     0.016782     0.436819    Uiso  ? Si
   Si48       1.0     0.839924     0.176954     0.324891    Uiso  ? Si
   Si49       1.0     0.822819     0.211346     0.688959    Uiso  ? Si
   Si50       1.0     0.826001     0.337658     0.131364    Uiso  ? Si
   Si51       1.0     0.692506     0.536514     0.226830    Uiso  ? Si
   Si52       1.0     0.837242     0.513117     0.028930    Uiso  ? Si
   Si53       1.0     0.835146     0.338064     0.423957    Uiso  ? Si
   Si54       1.0     0.651363     0.477569     0.537127    Uiso  ? Si
   Si55       1.0     0.848771     0.516523     0.324893    Uiso  ? Si
   Si56       1.0     0.870746     0.398292     0.775072    Uiso  ? Si
   Si57       1.0     0.681179     0.516475     0.902290    Uiso  ? Si
   Si58       1.0     0.834864     0.517459     0.654553    Uiso  ? Si
   Si59       1.0     0.841808     0.687529     0.125533    Uiso  ? Si
   Si60       1.0     0.669666     0.801161     0.222237    Uiso  ? Si
   Si61       1.0     0.805776     0.811595    -0.001805    Uiso  ? Si
   Si62       1.0     0.815986     0.651713     0.438072    Uiso  ? Si
   Si63       1.0     0.820561     0.824729     0.342492    Uiso  ? Si
   Si64       1.0     0.849958     0.665748     0.785325    Uiso  ? Si
   Si65       1.0     0.640498     0.827172     0.899648    Uiso  ? Si
   Si66       1.0     0.863699     0.820349     0.668919    Uiso  ? Si
   O1         1.0     0.109346     0.063815     0.088664    Uiso  ? O
   O2         1.0     0.037668     0.098241     0.252405    Uiso  ? O
   O3         1.0     0.088224     0.020630     0.369805    Uiso  ? O
   O4         1.0     0.060615     0.175188     0.992474    Uiso  ? O
   O5         1.0     0.064343     0.254491     0.164699    Uiso  ? O
   O6         1.0     0.215699     0.262548     0.085168    Uiso  ? O
   O7         1.0     0.192654     0.425020     0.092887    Uiso  ? O
   O8         1.0     0.115470     0.206508     0.369258    Uiso  ? O
   O9         1.0     0.102258     0.499192     0.249191    Uiso  ? O
   O10        1.0     0.143224     0.391040     0.344499    Uiso  ? O
   O11        1.0     0.063497     0.277367     0.863249    Uiso  ? O
   O12        1.0     0.046850     0.453029     0.608478    Uiso  ? O
   O13        1.0     0.110017     0.401171     0.741840    Uiso  ? O
   O14        1.0     0.052743     0.601279     0.156169    Uiso  ? O
   O15        1.0     0.189258     0.593786     0.066399    Uiso  ? O
   O16        1.0     0.081107     0.946304     0.207999    Uiso  ? O
   O17        1.0     0.155146     0.747168     0.058039    Uiso  ? O
   O18        1.0     0.162006     0.921535     0.081454    Uiso  ? O
   O19        1.0     0.060593     0.570381     0.486694    Uiso  ? O
   O20        1.0     0.191539     0.579082     0.379558    Uiso  ? O
   O21        1.0     0.035808     0.893402     0.483715    Uiso  ? O
   O22        1.0     0.055267     0.786265     0.284743    Uiso  ? O
   O23        1.0     0.137958     0.720044     0.387374    Uiso  ? O
   O24        1.0     0.179984     0.909617     0.391380    Uiso  ? O
   O25        1.0     0.035429     0.793613     0.978801    Uiso  ? O
   O26        1.0     0.081209     0.769106     0.559405    Uiso  ? O
   O27        1.0     0.267770     0.074877     0.169549    Uiso  ? O
   O28        1.0     0.234414     0.161812     0.287876    Uiso  ? O
   O29        1.0     0.458925     0.064560     0.074231    Uiso  ? O
   O30        1.0     0.221705     0.063138     0.480293    Uiso  ? O
   O31        1.0     0.372658     0.103056     0.301234    Uiso  ? O
   O32        1.0     0.479967     0.035690     0.373749    Uiso  ? O
   O33        1.0     0.256208     0.365165     0.210887    Uiso  ? O
   O34        1.0     0.294292     0.536580     0.273031    Uiso  ? O
   O35        1.0     0.396170     0.247249     0.477728    Uiso  ? O
   O36        1.0     0.526100     0.224955     0.394899    Uiso  ? O
   O37        1.0     0.412514     0.451712     0.302345    Uiso  ? O
   O38        1.0     0.513648     0.392545     0.385473    Uiso  ? O
   O39        1.0     0.253832     0.416171     0.840076    Uiso  ? O
   O40        1.0     0.431188     0.530593     0.909924    Uiso  ? O
   O41        1.0     0.261601     0.522454     0.960765    Uiso  ? O
   O42        1.0     0.426548     0.525804     0.170418    Uiso  ? O
   O43        1.0     0.519005     0.607981     0.044202    Uiso  ? O
   O44        1.0     0.251431     0.729749     0.177315    Uiso  ? O
   O45        1.0     0.393897     0.924536     0.177330    Uiso  ? O
   O46        1.0     0.254488     0.851876     0.282569    Uiso  ? O
   O47        1.0     0.507228     0.919444     0.065612    Uiso  ? O
   O48        1.0     0.528481     0.573001     0.406708    Uiso  ? O
   O49        1.0     0.250406     0.699077     0.498641    Uiso  ? O
   O50        1.0     0.391328     0.872335     0.457759    Uiso  ? O
   O51        1.0     0.274441     0.861425     0.572814    Uiso  ? O
   O52        1.0     0.399532     0.801962     0.280066    Uiso  ? O
   O53        1.0     0.482999     0.710362     0.350670    Uiso  ? O
   O54        1.0     0.551495     0.906725     0.373386    Uiso  ? O
   O55        1.0     0.350047     0.611519     0.826227    Uiso  ? O
   O56        1.0     0.416522     0.903921     0.934559    Uiso  ? O
   O57        1.0     0.320930     0.919665     0.818565    Uiso  ? O
   O58        1.0     0.237080     0.894193     0.956488    Uiso  ? O
   O59        1.0     0.403453     0.795663     0.596123    Uiso  ? O
   O60        1.0     0.422999     0.782003     0.754756    Uiso  ? O
   O61        1.0     0.419397     0.934836     0.689497    Uiso  ? O
   O62        1.0     0.915930     0.069313     0.140757    Uiso  ? O
   O63        1.0     0.594138     0.060135     0.171952    Uiso  ? O
   O64        1.0     0.569356     0.174797     0.267906    Uiso  ? O
   O65        1.0     0.914276     0.181211     0.257138    Uiso  ? O
   O66        1.0     0.726674     0.139033     0.286671    Uiso  ? O
   O67        1.0     0.836754     0.100426     0.390284    Uiso  ? O
   O68        1.0     0.722860     0.261766     0.178688    Uiso  ? O
   O69        1.0     0.916364     0.411476     0.189250    Uiso  ? O
   O70        1.0     0.620950     0.541268     0.293998    Uiso  ? O
   O71        1.0     0.800340     0.405999     0.072372    Uiso  ? O
   O72        1.0     0.880300     0.287218     0.363207    Uiso  ? O
   O73        1.0     0.911483     0.392605     0.496499    Uiso  ? O
   O74        1.0     0.602137     0.362863     0.503256    Uiso  ? O
   O75        1.0     0.961182     0.550196     0.290057    Uiso  ? O
   O76        1.0     0.761035     0.487246     0.259953    Uiso  ? O
   O77        1.0     0.815636     0.420889     0.379785    Uiso  ? O
   O78        1.0     0.892174     0.313818     0.737688    Uiso  ? O
   O79        1.0     0.606881     0.407064     0.866450    Uiso  ? O
   O80        1.0     0.748812     0.501948     0.968153    Uiso  ? O
   O81        1.0     0.614956     0.561892     0.941219    Uiso  ? O
   O82        1.0     0.925897     0.532261     0.597040    Uiso  ? O
   O83        1.0     0.734336     0.495761     0.604698    Uiso  ? O
   O84        1.0     0.804438     0.423648     0.711052    Uiso  ? O
   O85        1.0     0.769873     0.651482     0.200575    Uiso  ? O
   O86        1.0     0.852516     0.594889     0.093216    Uiso  ? O
   O87        1.0     0.951845     0.773769     0.156083    Uiso  ? O
   O88        1.0     0.608084     0.700978     0.171316    Uiso  ? O
   O89        1.0     0.771694     0.883405     0.179170    Uiso  ? O
   O90        1.0     0.592211     0.844114     0.245066    Uiso  ? O
   O91        1.0     0.881411     0.817416     0.928929    Uiso  ? O
   O92        1.0     0.793524     0.725686     0.058408    Uiso  ? O
   O93        1.0     0.860204     0.918749     0.042255    Uiso  ? O
   O94        1.0     0.710982     0.559926     0.470263    Uiso  ? O
   O95        1.0     0.859679     0.612196     0.370943    Uiso  ? O
   O96        1.0     0.898999     0.695303     0.506097    Uiso  ? O
   O97        1.0     0.911618     0.837836     0.286980    Uiso  ? O
   O98        1.0     0.710164     0.775911     0.300421    Uiso  ? O
   O99        1.0     0.801993     0.745072     0.410441    Uiso  ? O
   O100       1.0     0.847538     0.932342     0.376153    Uiso  ? O
   O101       1.0     0.748179     0.590111     0.832322    Uiso  ? O
   O102       1.0     0.868568     0.613834     0.710571    Uiso  ? O
   O103       1.0     0.942380     0.706759     0.848541    Uiso  ? O
   O104       1.0     0.547086     0.740412     0.848534    Uiso  ? O
   O105       1.0     0.692972     0.787069     0.964883    Uiso  ? O
   O106       1.0     0.591687     0.891555     0.939466    Uiso  ? O
   O107       1.0     0.955985     0.820880     0.619717    Uiso  ? O
   O108       1.0     0.848514     0.764900     0.752980    Uiso  ? O
   C1         1.0     0.240877     0.156830     0.965853    Uiso  ? C
   C2         1.0     0.873956     0.142872     0.928944    Uiso  ? C
   C3         1.0     0.013755     0.072495     0.855007    Uiso  ? C
   C4         1.0     0.049903     0.416315     0.983065    Uiso  ? C
   C5         1.0     0.060786     0.298296     0.480472    Uiso  ? C
   C6         1.0     0.284930     0.357469     0.438734    Uiso  ? C
   C7         1.0     0.167507     0.248810     0.740803    Uiso  ? C
   C8         1.0     0.229474     0.596282     0.676455    Uiso  ? C
   C9         1.0     0.217412     0.413363     0.608251    Uiso  ? C
   C10        1.0     0.076726     0.909678     0.844060    Uiso  ? C
   C11        1.0     0.147257     0.752037     0.705364    Uiso  ? C
   C12        1.0     0.174314     0.950720     0.648777    Uiso  ? C
   C13        1.0     0.420340     0.269597     0.207530    Uiso  ? C
   C14        1.0     0.562892     0.271463     0.048770    Uiso  ? C
   C15        1.0     0.450588     0.132071     0.923180    Uiso  ? C
   C16        1.0     0.644440     0.140572     0.986839    Uiso  ? C
   C17        1.0     0.581515     0.018191     0.508147    Uiso  ? C
   C18        1.0     0.408060     0.093655     0.549510    Uiso  ? C
   C19        1.0     0.277235     0.193953     0.605607    Uiso  ? C
   C20        1.0     0.391355     0.098078     0.742946    Uiso  ? C
   C21        1.0     0.549367     0.039260     0.806120    Uiso  ? C
   C22        1.0     0.434693     0.396902     0.011676    Uiso  ? C
   C23        1.0     0.394597     0.298203     0.821099    Uiso  ? C
   C24        1.0     0.566640     0.321562     0.716863    Uiso  ? C
   C25        1.0     0.535625     0.496705     0.755932    Uiso  ? C
   C26        1.0     0.421231     0.694831     0.141833    Uiso  ? C
   C27        1.0     0.406103     0.730571     0.982286    Uiso  ? C
   C28        1.0     0.375381     0.593482     0.486140    Uiso  ? C
   C29        1.0     0.587544     0.742717     0.493002    Uiso  ? C
   C30        1.0     0.489797     0.655488     0.698163    Uiso  ? C
   C31        1.0     0.221370     0.725183     0.884514    Uiso  ? C
   C32        1.0     0.596027     0.903381     0.667492    Uiso  ? C
   C33        1.0     0.719479     0.986465     0.076783    Uiso  ? C
   C34        1.0     0.974032     0.064356     0.494374    Uiso  ? C
   C35        1.0     0.755270     0.959959     0.508818    Uiso  ? C
   C36        1.0     0.898600     0.211384     0.607431    Uiso  ? C
   C37        1.0     0.698911     0.201614     0.659269    Uiso  ? C
   C38        1.0     0.804057     0.105895     0.750108    Uiso  ? C
   C39        1.0     0.868482     0.259282     0.082967    Uiso  ? C
   C40        1.0     0.614550     0.467726     0.145829    Uiso  ? C
   C41        1.0     0.953660     0.554604     0.974149    Uiso  ? C
   C42        1.0     0.719798     0.239099     0.465868    Uiso  ? C
   C43        1.0     0.540284     0.486090     0.571299    Uiso  ? C
   C44        1.0     0.789496     0.340983     0.859251    Uiso  ? C
   C45        1.0    -0.006425     0.513005     0.791317    Uiso  ? C
   C46        1.0     0.745321     0.897588     0.834347    Uiso  ? C
   C47        1.0     0.743128     0.745453     0.617993    Uiso  ? C
   C48        1.0     0.904539     0.953624     0.681944    Uiso  ? C
   H1         1.0     0.215946     0.081220     0.945733    Uiso  ? H
   H2         1.0     0.312729     0.181783     0.996953    Uiso  ? H
   H3         1.0     0.255762     0.206499     0.917140    Uiso  ? H
   H4         1.0     0.817794     0.070199     0.906990    Uiso  ? H
   H5         1.0     0.857367     0.198560     0.903373    Uiso  ? H
   H6         1.0     0.864001     0.141849     0.990250    Uiso  ? H
   H7         1.0     0.093082     0.089292     0.850826    Uiso  ? H
   H8         1.0    -0.016748     0.063919     0.797331    Uiso  ? H
   H9         1.0     0.971708     0.001105     0.884836    Uiso  ? H
   H10        1.0     0.036086     0.340081     0.978334    Uiso  ? H
   H11        1.0     0.047314     0.443051     0.925804    Uiso  ? H
   H12        1.0    -0.010909     0.415905     0.016499    Uiso  ? H
   H13        1.0     0.065892     0.256554     0.529036    Uiso  ? H
   H14        1.0     0.983993     0.257002     0.456575    Uiso  ? H
   H15        1.0     0.071359     0.369541     0.500763    Uiso  ? H
   H16        1.0     0.316953     0.323040     0.401917    Uiso  ? H
   H17        1.0     0.285549     0.331936     0.496873    Uiso  ? H
   H18        1.0     0.334669     0.437580     0.436906    Uiso  ? H
   H19        1.0     0.099865     0.202031     0.706151    Uiso  ? H
   H20        1.0     0.183113     0.199839     0.777283    Uiso  ? H
   H21        1.0     0.232000     0.287307     0.702541    Uiso  ? H
   H22        1.0     0.308285     0.611537     0.672537    Uiso  ? H
   H23        1.0     0.219324     0.621563     0.731796    Uiso  ? H
   H24        1.0     0.218477     0.639685     0.631558    Uiso  ? H
   H25        1.0     0.236795     0.445421     0.551294    Uiso  ? H
   H26        1.0     0.177797     0.332525     0.603354    Uiso  ? H
   H27        1.0     0.289469     0.436157     0.639003    Uiso  ? H
   H28        1.0     0.041473     0.928709     0.796839    Uiso  ? H
   H29        1.0     0.127083     0.883559     0.820930    Uiso  ? H
   H30        1.0     0.124467     0.976697     0.876737    Uiso  ? H
   H31        1.0     0.215605     0.769809     0.738634    Uiso  ? H
   H32        1.0     0.111088     0.674530     0.687349    Uiso  ? H
   H33        1.0     0.092851     0.759697     0.742119    Uiso  ? H
   H34        1.0     0.252192     0.005742     0.663434    Uiso  ? H
   H35        1.0     0.126689     0.938952     0.698564    Uiso  ? H
   H36        1.0     0.147741     0.981404     0.603266    Uiso  ? H
   H37        1.0     0.389240     0.301890     0.166595    Uiso  ? H
   H38        1.0     0.479664     0.259158     0.180540    Uiso  ? H
   H39        1.0     0.454441     0.320987     0.255032    Uiso  ? H
   H40        1.0     0.605248     0.331683     0.008138    Uiso  ? H
   H41        1.0     0.609710     0.285016     0.099775    Uiso  ? H
   H42        1.0     0.492970     0.272453     0.063713    Uiso  ? H
   H43        1.0     0.498493     0.189381     0.882022    Uiso  ? H
   H44        1.0     0.384154     0.140317     0.935363    Uiso  ? H
   H45        1.0     0.423916     0.058759     0.898882    Uiso  ? H
   H46        1.0     0.630371     0.073885     0.955548    Uiso  ? H
   H47        1.0     0.684692     0.142583     0.039393    Uiso  ? H
   H48        1.0     0.695586     0.205645     0.952885    Uiso  ? H
   H49        1.0     0.661847     0.059483     0.493860    Uiso  ? H
   H50        1.0     0.570612    -0.040628     0.548230    Uiso  ? H
   H51        1.0     0.559007     0.067865     0.535577    Uiso  ? H
   H52        1.0     0.425914     0.074005     0.494131    Uiso  ? H
   H53        1.0     0.377027     0.026784     0.584776    Uiso  ? H
   H54        1.0     0.479854     0.151250     0.574482    Uiso  ? H
   H55        1.0     0.221446     0.213762     0.582247    Uiso  ? H
   H56        1.0     0.341311     0.262036     0.628556    Uiso  ? H
   H57        1.0     0.240791     0.141586     0.652311    Uiso  ? H
   H58        1.0     0.313416     0.076334     0.760290    Uiso  ? H
   H59        1.0     0.401730     0.120270     0.683280    Uiso  ? H
   H60        1.0     0.441613     0.163174     0.776258    Uiso  ? H
   H61        1.0     0.600998     0.063485     0.757513    Uiso  ? H
   H62        1.0     0.555503     0.978918     0.834779    Uiso  ? H
   H63        1.0     0.575935     0.101510     0.845519    Uiso  ? H
   H64        1.0     0.443238     0.349277     0.969761    Uiso  ? H
   H65        1.0     0.353632     0.374744     0.015300    Uiso  ? H
   H66        1.0     0.459001     0.383602     0.066939    Uiso  ? H
   H67        1.0     0.385918     0.237044     0.857643    Uiso  ? H
   H68        1.0     0.348794     0.265392     0.769805    Uiso  ? H
   H69        1.0     0.363821     0.340660     0.849800    Uiso  ? H
   H70        1.0     0.506879     0.286623     0.673458    Uiso  ? H
   H71        1.0     0.581833     0.264086     0.740333    Uiso  ? H
   H72        1.0     0.636301     0.376262     0.689247    Uiso  ? H
   H73        1.0     0.532411     0.541690     0.802606    Uiso  ? H
   H74        1.0     0.468917     0.476558     0.719611    Uiso  ? H
   H75        1.0     0.604125     0.541794     0.722459    Uiso  ? H
   H76        1.0     0.405033     0.687223     0.202725    Uiso  ? H
   H77        1.0     0.347489     0.652358     0.114205    Uiso  ? H
   H78        1.0     0.455808     0.773088     0.126030    Uiso  ? H
   H79        1.0     0.444958     0.689327    -0.001108    Uiso  ? H
   H80        1.0     0.381891     0.712607     0.923214    Uiso  ? H
   H81        1.0     0.337192     0.705169     0.015576    Uiso  ? H
   H82        1.0     0.385936     0.543146     0.525046    Uiso  ? H
   H83        1.0     0.302918     0.552751     0.456172    Uiso  ? H
   H84        1.0     0.371344     0.649597     0.521355    Uiso  ? H
   H85        1.0     0.663735     0.778577     0.468773    Uiso  ? H
   H86        1.0     0.587330     0.701066     0.543655    Uiso  ? H
   H87        1.0     0.566674     0.798435     0.510445    Uiso  ? H
   H88        1.0     0.492298     0.700967     0.649098    Uiso  ? H
   H89        1.0     0.433973     0.578657     0.684370    Uiso  ? H
   H90        1.0     0.563891     0.659220     0.704271    Uiso  ? H
   H91        1.0     0.206646     0.683445     0.937821    Uiso  ? H
   H92        1.0     0.254181     0.695297     0.843942    Uiso  ? H
   H93        1.0     0.147630     0.712225     0.861717    Uiso  ? H
   H94        1.0     0.615025     0.870050     0.619914    Uiso  ? H
   H95        1.0     0.626572     0.887847     0.719366    Uiso  ? H
   H96        1.0     0.635750     0.983901     0.658649    Uiso  ? H
   H97        1.0     0.653045     0.913164     0.069981    Uiso  ? H
   H98        1.0     0.731817     0.025938     0.023025    Uiso  ? H
   H99        1.0     0.699963     0.024024     0.120680    Uiso  ? H
   H100       1.0     0.045664     0.112535     0.466268    Uiso  ? H
   H101       1.0     0.976156     0.998068     0.515339    Uiso  ? H
   H102       1.0     0.966640     0.103389     0.543544    Uiso  ? H
   H103       1.0     0.762522     0.901251     0.539024    Uiso  ? H
   H104       1.0     0.679842     0.928199     0.483296    Uiso  ? H
   H105       1.0     0.762798     0.014959     0.551046    Uiso  ? H
   H106       1.0     0.855900     0.146062     0.571543    Uiso  ? H
   H107       1.0     0.967036     0.210108     0.628370    Uiso  ? H
   H108       1.0     0.922725     0.277306     0.571953    Uiso  ? H
   H109       1.0     0.657681     0.205063     0.709027    Uiso  ? H
   H110       1.0     0.650230     0.131021     0.630362    Uiso  ? H
   H111       1.0     0.709081     0.262335     0.621206    Uiso  ? H
   H112       1.0     0.776025     0.039553     0.714711    Uiso  ? H
   H113       1.0     0.751531     0.090741     0.797239    Uiso  ? H
   H114       1.0     0.878078     0.121082     0.773408    Uiso  ? H
   H115       1.0     0.856280     0.259250     0.021827    Uiso  ? H
   H116       1.0     0.825275     0.182407     0.103396    Uiso  ? H
   H117       1.0     0.948972     0.284255     0.093970    Uiso  ? H
   H118       1.0     0.601271     0.391706     0.145153    Uiso  ? H
   H119       1.0     0.649240     0.502842     0.091659    Uiso  ? H
   H120       1.0     0.541098     0.465763     0.150402    Uiso  ? H
   H121       1.0     0.942522     0.499485     0.931233    Uiso  ? H
   H122       1.0     0.019181     0.568225     0.009288    Uiso  ? H
   H123       1.0     0.970761     0.623738     0.944899    Uiso  ? H
   H124       1.0     0.669404     0.186227     0.423520    Uiso  ? H
   H125       1.0     0.677440     0.268306     0.496910    Uiso  ? H
   H126       1.0     0.744441     0.200395     0.506123    Uiso  ? H
   H127       1.0     0.489690     0.474089     0.522595    Uiso  ? H
   H128       1.0     0.558598     0.557293     0.597041    Uiso  ? H
   H129       1.0     0.498705     0.426625     0.612683    Uiso  ? H
   H130       1.0     0.833039     0.326245     0.903070    Uiso  ? H
   H131       1.0     0.725186     0.269207     0.842016    Uiso  ? H
   H132       1.0     0.757885     0.384474     0.884675    Uiso  ? H
   H133       1.0     0.029478     0.540456     0.735905    Uiso  ? H
   H134       1.0     0.046568     0.498957     0.825420    Uiso  ? H
   H135       1.0     0.984911     0.572484     0.817836    Uiso  ? H
   H136       1.0     0.761426     0.842608     0.807488    Uiso  ? H
   H137       1.0     0.814965     0.950493     0.863777    Uiso  ? H
   H138       1.0     0.727670     0.937690     0.790953    Uiso  ? H
   H139       1.0     0.717758     0.666463     0.628560    Uiso  ? H
   H140       1.0     0.751465     0.757978     0.556609    Uiso  ? H
   H141       1.0     0.683913     0.761662     0.637701    Uiso  ? H
   H142       1.0     0.865707     0.967673     0.728321    Uiso  ? H
   H143       1.0     0.890138     0.983591     0.629401    Uiso  ? H
   H144       1.0     0.987129    -0.005538     0.692198    Uiso  ? H
