
#======================================================================
# CRYSTAL DATA
#----------------------------------------------------------------------
data_VESTA_phase_1

_chemical_name_common                  '333-C50-32                            '
_cell_length_a                         15.708732
_cell_length_b                         15.445832
_cell_length_c                         17.639797
_cell_angle_alpha                      95.275414
_cell_angle_beta                       90.473511
_cell_angle_gamma                      122.084015
_cell_volume                           3602.694895
_space_group_name_H-M_alt              'P 1'
_space_group_IT_number                 1

loop_
_space_group_symop_operation_xyz
   'x, y, z'

loop_
   _atom_site_label
   _atom_site_occupancy
   _atom_site_fract_x
   _atom_site_fract_y
   _atom_site_fract_z
   _atom_site_adp_type
   _atom_site_U_iso_or_equiv
   _atom_site_type_symbol
   Si1        1.0     0.066133     0.219290     0.296722    Uiso  ? Si
   Si2        1.0     0.200186     0.187724     0.971411    Uiso  ? Si
   Si3        1.0     0.104598     0.902912     0.315513    Uiso  ? Si
   Si4        1.0     0.974353     0.142469     0.554436    Uiso  ? Si
   Si5        1.0     0.166277     0.037815     0.721763    Uiso  ? Si
   Si6        1.0     0.175213     0.193115     0.625353    Uiso  ? Si
   Si7        1.0     0.214441     0.392669     0.195196    Uiso  ? Si
   Si8        1.0     0.135385     0.597790     0.292584    Uiso  ? Si
   Si9        1.0     0.147900     0.327721     0.752770    Uiso  ? Si
   Si10       1.0     0.160076     0.584755     0.664375    Uiso  ? Si
   Si11       1.0     0.872448     0.689859     0.200939    Uiso  ? Si
   Si12       1.0     0.254150     0.804457     0.390031    Uiso  ? Si
   Si13       1.0     0.034132     0.883940     0.484544    Uiso  ? Si
   Si14       1.0     0.952717     0.485048     0.738759    Uiso  ? Si
   Si15       1.0     0.024048     0.871284     0.817656    Uiso  ? Si
   Si16       1.0     0.152904     0.855453     0.612532    Uiso  ? Si
   Si17       1.0     0.383991     0.088236     0.238991    Uiso  ? Si
   Si18       1.0     0.436742     0.119796     0.945886    Uiso  ? Si
   Si19       1.0     0.537201     0.042705     0.505411    Uiso  ? Si
   Si20       1.0     0.357554     0.200654     0.542517    Uiso  ? Si
   Si21       1.0     0.545449     0.173256     0.371355    Uiso  ? Si
   Si22       1.0     0.340171     0.189037     0.838988    Uiso  ? Si
   Si23       1.0     0.505353     0.337437     0.046362    Uiso  ? Si
   Si24       1.0     0.464131     0.495470     0.980673    Uiso  ? Si
   Si25       1.0     0.546904     0.356678     0.466039    Uiso  ? Si
   Si26       1.0     0.255214     0.486169     0.561034    Uiso  ? Si
   Si27       1.0     0.515036     0.504433     0.377029    Uiso  ? Si
   Si28       1.0     0.558654     0.360163     0.804577    Uiso  ? Si
   Si29       1.0     0.285891     0.479319     0.891388    Uiso  ? Si
   Si30       1.0     0.430142     0.492567     0.651810    Uiso  ? Si
   Si31       1.0     0.299611     0.701424     0.106917    Uiso  ? Si
   Si32       1.0     0.568837     0.877348     0.973258    Uiso  ? Si
   Si33       1.0     0.342967     0.858902     0.552424    Uiso  ? Si
   Si34       1.0     0.458803     0.761495     0.242544    Uiso  ? Si
   Si35       1.0     0.499632     0.693117     0.759507    Uiso  ? Si
   Si36       1.0     0.978949     0.599580     0.898497    Uiso  ? Si
   Si37       1.0     0.490725     0.857087     0.667566    Uiso  ? Si
   Si38       1.0     0.704557     0.194211     0.252844    Uiso  ? Si
   Si39       1.0     0.834304     0.986971     0.409592    Uiso  ? Si
   Si40       1.0     0.724587     0.175053     0.616201    Uiso  ? Si
   Si41       1.0     0.861472     0.177665     0.350168    Uiso  ? Si
   Si42       1.0     0.663345     0.210501     0.953022    Uiso  ? Si
   Si43       1.0     0.818208     0.059649     0.670693    Uiso  ? Si
   Si44       1.0     0.827949     0.369269     0.150595    Uiso  ? Si
   Si45       1.0     0.863894     0.317244     0.493661    Uiso  ? Si
   Si46       1.0     0.869440     0.469349     0.394474    Uiso  ? Si
   Si47       1.0     0.668939     0.552263     0.917032    Uiso  ? Si
   Si48       1.0     0.672999     0.811162     0.206459    Uiso  ? Si
   Si49       1.0     0.802353     0.728209     0.484401    Uiso  ? Si
   Si50       1.0     0.808327     0.799609     0.324350    Uiso  ? Si
   Si51       1.0     0.789833     0.945643     0.945761    Uiso  ? Si
   C1         1.0     0.129602     0.193238     0.372160    Uiso  ? C
   C2         1.0     0.005212     0.112048     0.217460    Uiso  ? C
   C3         1.0     0.214593     0.117847     0.046542    Uiso  ? C
   C4         1.0     0.302989     0.350583     0.170846    Uiso  ? C
   C5         1.0     0.132329     0.374904     0.110587    Uiso  ? C
   C6         1.0     0.124776     0.505158     0.357720    Uiso  ? C
   C7         1.0     0.068138     0.229069     0.815249    Uiso  ? C
   C8         1.0     0.226760     0.663643     0.756023    Uiso  ? C
   C9         1.0     0.942736     0.746178     0.115740    Uiso  ? C
   C10        1.0     0.922092     0.367878     0.783491    Uiso  ? C
   C11        1.0     0.019021     0.885045     0.923470    Uiso  ? C
   C12        1.0     0.898421     0.797433     0.763308    Uiso  ? C
   C13        1.0     0.843419     0.479234     0.691110    Uiso  ? C
   C14        1.0     0.049868     0.732381     0.640410    Uiso  ? C
   C15        1.0     0.329550     0.168634     0.259958    Uiso  ? C
   C16        1.0     0.359430    -0.002622     0.988009    Uiso  ? C
   C17        1.0     0.290432     0.091912     0.466389    Uiso  ? C
   C18        1.0     0.426783     0.182869     0.618864    Uiso  ? C
   C19        1.0     0.472034     0.133424     0.161543    Uiso  ? C
   C20        1.0     0.449145     0.569718     0.061701    Uiso  ? C
   C21        1.0     0.644970     0.393211     0.542688    Uiso  ? C
   C22        1.0     0.328200     0.596047     0.505141    Uiso  ? C
   C23        1.0     0.375589     0.421080     0.380708    Uiso  ? C
   C24        1.0     0.557063     0.510869     0.277740    Uiso  ? C
   C25        1.0     0.603605     0.274157     0.772644    Uiso  ? C
   C26        1.0     0.546966     0.563763     0.600793    Uiso  ? C
   C27        1.0     0.251411     0.787151     0.131193    Uiso  ? C
   C28        1.0     0.584899     0.955744     0.065693    Uiso  ? C
   C29        1.0     0.437104     0.695111     0.329254    Uiso  ? C
   C30        1.0     0.495269     0.897877     0.262477    Uiso  ? C
   C31        1.0     0.578590     0.958280     0.463161    Uiso  ? C
   C32        1.0     0.470899     0.871372     0.909035    Uiso  ? C
   C33        1.0     0.100340     0.696576     0.952447    Uiso  ? C
   C34        1.0     0.499175     0.964384     0.731260    Uiso  ? C
   C35        1.0     0.738895     0.169669     0.897943    Uiso  ? C
   C36        1.0     0.879317     0.297931     0.098469    Uiso  ? C
   C37        1.0     0.768326     0.476705     0.346482    Uiso  ? C
   C38        1.0     0.708872     0.764257     0.120021    Uiso  ? C
   C39        1.0     0.751668     0.792582     0.545716    Uiso  ? C
   C40        1.0     0.965635     0.596201     0.446934    Uiso  ? C
   C41        1.0     0.637895     0.753561     0.756963    Uiso  ? C
   C42        1.0     0.772546     0.815445     0.941312    Uiso  ? C
   C43        1.0     0.853868     0.024920     0.038987    Uiso  ? C
   C44        1.0     0.865870     0.015678     0.866957    Uiso  ? C
   H1         1.0     0.092766     0.124514     0.941485    Uiso  ? H
   H2         1.0     0.079245     0.968304     0.275968    Uiso  ? H
   H3         1.0     0.214627     0.961191     0.334813    Uiso  ? H
   H4         1.0     0.966937     0.232928     0.550161    Uiso  ? H
   H5         1.0     0.221438     0.289745     0.004380    Uiso  ? H
   H6         1.0     0.272448     0.502950     0.227209    Uiso  ? H
   H7         1.0     0.045173     0.606414     0.289573    Uiso  ? H
   H8         1.0     0.150837     0.570322     0.212965    Uiso  ? H
   H9         1.0     0.088499     0.356654     0.707885    Uiso  ? H
   H10        1.0     0.168765     0.647162     0.602109    Uiso  ? H
   H11        1.0     0.920338     0.644000     0.240998    Uiso  ? H
   H12        1.0     0.765829     0.606774     0.177108    Uiso  ? H
   H13        1.0     0.157966     0.798659     0.400955    Uiso  ? H
   H14        1.0     0.334383     0.905018     0.367757    Uiso  ? H
   H15        1.0     0.046805     0.984600     0.506088    Uiso  ? H
   H16        1.0     0.080538     0.819396     0.801167    Uiso  ? H
   H17        1.0     0.301172     0.978964     0.218267    Uiso  ? H
   H18        1.0     0.077651     0.809128     0.263463    Uiso  ? H
   H19        1.0     0.616511     0.401662     0.042928    Uiso  ? H
   H20        1.0     0.477177     0.325153     0.126550    Uiso  ? H
   H21        1.0     0.172845     0.393484     0.513634    Uiso  ? H
   H22        1.0     0.552799     0.610269     0.414755    Uiso  ? H
   H23        1.0     0.205062     0.424908     0.944527    Uiso  ? H
   H24        1.0     0.571861     0.430532     0.747132    Uiso  ? H
   H25        1.0     0.418712     0.402134     0.683949    Uiso  ? H
   H26        1.0     0.369387     0.741134     0.044030    Uiso  ? H
   H27        1.0     0.216266     0.594737     0.078536    Uiso  ? H
   H28        1.0     0.540682     0.771720     0.987727    Uiso  ? H
   H29        1.0     0.322347     0.590526     0.900024    Uiso  ? H
   H30        1.0     0.470430     0.694126     0.839075    Uiso  ? H
   H31        1.0     0.930004     0.500754     0.933897    Uiso  ? H
   H32        1.0     0.907272     0.635625     0.901357    Uiso  ? H
   H33        1.0     0.585597     0.888846     0.629322    Uiso  ? H
   H34        1.0     0.638478     0.100648     0.200581    Uiso  ? H
   H35        1.0     0.737579     0.915646     0.440541    Uiso  ? H
   H36        1.0     0.730430     0.218381     0.695249    Uiso  ? H
   H37        1.0     0.699013     0.319935     0.945893    Uiso  ? H
   H38        1.0     0.668344     0.199271     0.035872    Uiso  ? H
   H39        1.0     0.843155     0.123751     0.745201    Uiso  ? H
   H40        1.0     0.758012     0.948445     0.679121    Uiso  ? H
   H41        1.0     0.911005     0.463912     0.196275    Uiso  ? H
   H42        1.0     0.777632     0.401009     0.097462    Uiso  ? H
   H43        1.0     0.972128     0.382743     0.518022    Uiso  ? H
   H44        1.0     0.914931     0.431619     0.336818    Uiso  ? H
   H45        1.0     0.712722     0.617585     0.853998    Uiso  ? H
   H46        1.0     0.745077     0.582453     0.980899    Uiso  ? H
   H47        1.0     0.725094     0.925565     0.215260    Uiso  ? H
   H48        1.0     0.759960     0.620215     0.498831    Uiso  ? H
   H49        1.0     0.192858     0.190571     0.348923    Uiso  ? H
   H50        1.0     0.077682     0.118832     0.392890    Uiso  ? H
   H51        1.0     0.159165     0.252835     0.421242    Uiso  ? H
   H52        1.0     0.949973     0.039040     0.238707    Uiso  ? H
   H53        1.0     0.061998     0.101091     0.189938    Uiso  ? H
   H54        1.0     0.966317     0.127472     0.173691    Uiso  ? H
   H55        1.0     0.196753     0.041538     0.022515    Uiso  ? H
   H56        1.0     0.159211     0.105617     0.088941    Uiso  ? H
   H57        1.0     0.289858     0.159548     0.075986    Uiso  ? H
   H58        1.0     0.261547     0.266703     0.157865    Uiso  ? H
   H59        1.0     0.357585     0.372275     0.219038    Uiso  ? H
   H60        1.0     0.344682     0.384054     0.121068    Uiso  ? H
   H61        1.0     0.088235     0.409654     0.124789    Uiso  ? H
   H62        1.0     0.079997     0.293093     0.090174    Uiso  ? H
   H63        1.0     0.177598     0.412274     0.062953    Uiso  ? H
   H64        1.0     0.194928     0.505738     0.360546    Uiso  ? H
   H65        1.0     0.063547     0.426180     0.338278    Uiso  ? H
   H66        1.0     0.111369     0.525945     0.415679    Uiso  ? H
   H67        1.0     0.109150     0.198028     0.840301    Uiso  ? H
   H68        1.0     0.002343     0.164576     0.781491    Uiso  ? H
   H69        1.0     0.041122     0.258756     0.861818    Uiso  ? H
   H70        1.0     0.307587     0.714641     0.749964    Uiso  ? H
   H71        1.0     0.217454     0.613364     0.799725    Uiso  ? H
   H72        1.0     0.195678     0.709998     0.776428    Uiso  ? H
   H73        1.0     0.913515     0.785743     0.086345    Uiso  ? H
   H74        1.0     0.934227     0.683113     0.075066    Uiso  ? H
   H75        1.0     0.023416     0.800689     0.131072    Uiso  ? H
   H76        1.0     0.986204     0.385213     0.821749    Uiso  ? H
   H77        1.0     0.906497     0.303716     0.741183    Uiso  ? H
   H78        1.0     0.856524     0.342241     0.817849    Uiso  ? H
   H79        1.0     0.965868     0.809838     0.942589    Uiso  ? H
   H80        1.0    -0.003283     0.938980     0.943840    Uiso  ? H
   H81        1.0     0.093625     0.912496     0.950524    Uiso  ? H
   H82        1.0     0.854050     0.717391     0.776613    Uiso  ? H
   H83        1.0     0.907753     0.796283     0.701605    Uiso  ? H
   H84        1.0     0.854830     0.833175     0.776022    Uiso  ? H
   H85        1.0     0.787436     0.468674     0.732391    Uiso  ? H
   H86        1.0     0.806101     0.416431     0.644510    Uiso  ? H
   H87        1.0     0.868642     0.551741     0.667161    Uiso  ? H
   H88        1.0     0.037342     0.668204     0.599584    Uiso  ? H
   H89        1.0     0.979920     0.732320     0.640124    Uiso  ? H
   H90        1.0     0.064995     0.719116     0.697612    Uiso  ? H
   H91        1.0     0.269124     0.149082     0.217073    Uiso  ? H
   H92        1.0     0.387352     0.250751     0.261035    Uiso  ? H
   H93        1.0     0.297887     0.155586     0.316007    Uiso  ? H
   H94        1.0     0.323571     0.934345     0.941232    Uiso  ? H
   H95        1.0     0.299753     0.996306     0.020559    Uiso  ? H
   H96        1.0     0.404458     0.981939     0.025753    Uiso  ? H
   H97        1.0     0.247896     0.018365     0.490167    Uiso  ? H
   H98        1.0     0.342629     0.087737     0.427584    Uiso  ? H
   H99        1.0     0.237446     0.102042     0.433106    Uiso  ? H
   H100       1.0     0.378928     0.110325     0.643233    Uiso  ? H
   H101       1.0     0.451168     0.246270     0.664533    Uiso  ? H
   H102       1.0     0.493260     0.184090     0.598953    Uiso  ? H
   H103       1.0     0.434249     0.137423     0.110808    Uiso  ? H
   H104       1.0     0.498904     0.081979     0.145761    Uiso  ? H
   H105       1.0     0.538111     0.211074     0.178305    Uiso  ? H
   H106       1.0     0.472276     0.646781     0.047715    Uiso  ? H
   H107       1.0     0.493976     0.579447     0.113445    Uiso  ? H
   H108       1.0     0.370035     0.531302     0.075867    Uiso  ? H
   H109       1.0     0.720895     0.445561     0.525089    Uiso  ? H
   H110       1.0     0.642357     0.324703     0.558432    Uiso  ? H
   H111       1.0     0.632688     0.430732     0.593660    Uiso  ? H
   H112       1.0     0.284303     0.627033     0.485497    Uiso  ? H
   H113       1.0     0.355213     0.572337     0.455148    Uiso  ? H
   H114       1.0     0.394130     0.659197     0.539855    Uiso  ? H
   H115       1.0     0.347879     0.343475     0.352548    Uiso  ? H
   H116       1.0     0.334832     0.450624     0.352810    Uiso  ? H
   H117       1.0     0.355654     0.413089     0.440317    Uiso  ? H
   H118       1.0     0.530652     0.433808     0.248794    Uiso  ? H
   H119       1.0     0.639595     0.556256     0.278807    Uiso  ? H
   H120       1.0     0.528540     0.547443     0.243616    Uiso  ? H
   H121       1.0     0.601154     0.263613     0.710194    Uiso  ? H
   H122       1.0     0.558310     0.197932     0.792454    Uiso  ? H
   H123       1.0     0.682050     0.309346     0.794688    Uiso  ? H
   H124       1.0     0.555336     0.634983     0.584984    Uiso  ? H
   H125       1.0     0.546070     0.519681     0.548202    Uiso  ? H
   H126       1.0     0.613815     0.584991     0.637332    Uiso  ? H
   H127       1.0     0.185533     0.751265     0.165524    Uiso  ? H
   H128       1.0     0.230783     0.807877     0.079280    Uiso  ? H
   H129       1.0     0.309962     0.858725     0.164538    Uiso  ? H
   H130       1.0     0.614865     0.036324     0.056834    Uiso  ? H
   H131       1.0     0.635675     0.954835     0.108319    Uiso  ? H
   H132       1.0     0.511336     0.925563     0.089906    Uiso  ? H
   H133       1.0     0.508245     0.728073     0.363925    Uiso  ? H
   H134       1.0     0.408137     0.613346     0.312621    Uiso  ? H
   H135       1.0     0.382363     0.699847     0.364591    Uiso  ? H
   H136       1.0     0.502119     0.932028     0.209241    Uiso  ? H
   H137       1.0     0.569058     0.944202     0.294549    Uiso  ? H
   H138       1.0     0.440359     0.905655     0.295554    Uiso  ? H
   H139       1.0     0.520852     0.897625     0.421286    Uiso  ? H
   H140       1.0     0.593573     0.921410     0.507265    Uiso  ? H
   H141       1.0     0.648021     0.002896     0.433963    Uiso  ? H
   H142       1.0     0.464324     0.832660     0.852130    Uiso  ? H
   H143       1.0     0.487952     0.949065     0.903087    Uiso  ? H
   H144       1.0     0.397305     0.827920     0.933401    Uiso  ? H
   H145       1.0     0.150595     0.667330     0.954360    Uiso  ? H
   H146       1.0     0.086919     0.713944     0.011314    Uiso  ? H
   H147       1.0     0.138700     0.768401     0.925658    Uiso  ? H
   H148       1.0     0.512264     0.026594     0.697868    Uiso  ? H
   H149       1.0     0.560836    -0.003889     0.775800    Uiso  ? H
   H150       1.0     0.428725     0.938393     0.759579    Uiso  ? H
   H151       1.0     0.819366     0.220406     0.916198    Uiso  ? H
   H152       1.0     0.730221     0.173956     0.836744    Uiso  ? H
   H153       1.0     0.715252     0.090289     0.905594    Uiso  ? H
   H154       1.0     0.931397     0.343228     0.056307    Uiso  ? H
   H155       1.0     0.818326     0.224728     0.068631    Uiso  ? H
   H156       1.0     0.920617     0.280841     0.138816    Uiso  ? H
   H157       1.0     0.705736     0.400995     0.322024    Uiso  ? H
   H158       1.0     0.801041     0.524451     0.299587    Uiso  ? H
   H159       1.0     0.738428     0.512688     0.384947    Uiso  ? H
   H160       1.0     0.686449     0.683709     0.120107    Uiso  ? H
   H161       1.0     0.790703     0.811416     0.115771    Uiso  ? H
   H162       1.0     0.672112     0.769386     0.069021    Uiso  ? H
   H163       1.0     0.750454     0.772162     0.603977    Uiso  ? H
   H164       1.0     0.675015     0.769300     0.526540    Uiso  ? H
   H165       1.0     0.800992     0.876575     0.548504    Uiso  ? H
   H166       1.0    -0.002795     0.657188     0.409018    Uiso  ? H
   H167       1.0     0.027929     0.594609     0.474175    Uiso  ? H
   H168       1.0     0.929747     0.617350     0.491874    Uiso  ? H
   H169       1.0     0.662437     0.764637     0.698687    Uiso  ? H
   H170       1.0     0.661576     0.706138     0.781499    Uiso  ? H
   H171       1.0     0.676120     0.829170     0.791110    Uiso  ? H
   H172       1.0     0.819834     0.811584     0.985272    Uiso  ? H
   H173       1.0     0.791507     0.795114     0.885609    Uiso  ? H
   H174       1.0     0.693747     0.756412     0.948578    Uiso  ? H
   H175       1.0     0.928287     0.034777     0.046596    Uiso  ? H
   H176       1.0     0.811786     0.989971     0.088460    Uiso  ? H
   H177       1.0     0.865970     0.102035     0.040319    Uiso  ? H
   H178       1.0     0.831349    -0.028445     0.810978    Uiso  ? H
   H179       1.0     0.942412     0.030666     0.872570    Uiso  ? H
   H180       1.0     0.872768     0.090205     0.867276    Uiso  ? H
   O1         1.0     0.091891     0.178754     0.561023    Uiso  ? O
   O2         1.0     0.125047     0.082520     0.660911    Uiso  ? O
   O3         1.0     0.145386     0.327635     0.263497    Uiso  ? O
   O4         1.0     0.199028     0.282979     0.693139    Uiso  ? O
   O5         1.0     0.234662     0.714491     0.322668    Uiso  ? O
   O6         1.0     0.042431     0.868039     0.392948    Uiso  ? O
   O7         1.0     0.038990     0.510020     0.677474    Uiso  ? O
   O8         1.0     0.088708    -0.011875     0.788539    Uiso  ? O
   O9         1.0     0.120153     0.876428     0.530881    Uiso  ? O
   O10        1.0     0.181333     0.950580     0.677659    Uiso  ? O
   O11        1.0     0.276111     0.222555     0.583517    Uiso  ? O
   O12        1.0     0.445095     0.090952     0.317159    Uiso  ? O
   O13        1.0     0.543012     0.120490     0.446932    Uiso  ? O
   O14        1.0     0.274906     0.133469     0.758410    Uiso  ? O
   O15        1.0     0.373144     0.113133     0.869189    Uiso  ? O
   O16        1.0     0.272391     0.205941     0.899986    Uiso  ? O
   O17        1.0     0.461726     0.221928     0.002767    Uiso  ? O
   O18        1.0     0.451101     0.389916     0.007485    Uiso  ? O
   O19        1.0     0.436085     0.304023     0.501376    Uiso  ? O
   O20        1.0     0.545890     0.277224     0.396014    Uiso  ? O
   O21        1.0     0.204530     0.514218     0.632913    Uiso  ? O
   O22        1.0     0.568110     0.457983     0.427898    Uiso  ? O
   O23        1.0     0.439419     0.298085     0.823921    Uiso  ? O
   O24        1.0     0.238989     0.431537     0.803938    Uiso  ? O
   O25        1.0     0.379204     0.464033     0.911465    Uiso  ? O
   O26        1.0     0.330857     0.453569     0.594365    Uiso  ? O
   O27        1.0     0.292081     0.785883     0.471422    Uiso  ? O
   O28        1.0     0.422671     0.976511     0.533685    Uiso  ? O
   O29        1.0     0.257599     0.858380     0.603353    Uiso  ? O
   O30        1.0     0.359852     0.696247     0.181316    Uiso  ? O
   O31        1.0     0.436234     0.572848     0.723397    Uiso  ? O
   O32        1.0    -0.000320     0.581123     0.808972    Uiso  ? O
   O33        1.0     0.400277     0.816513     0.599567    Uiso  ? O
   O34        1.0     0.464962     0.759363     0.713563    Uiso  ? O
   O35        1.0     0.645993     0.201612     0.326633    Uiso  ? O
   O36        1.0     0.919381     0.061040     0.477941    Uiso  ? O
   O37        1.0     0.608635     0.117170     0.581632    Uiso  ? O
   O38        1.0     0.979903     0.237565     0.335456    Uiso  ? O
   O39        1.0     0.801247     0.189248     0.280504    Uiso  ? O
   O40        1.0     0.816460     0.054988     0.353240    Uiso  ? O
   O41        1.0     0.543348     0.134073     0.920930    Uiso  ? O
   O42        1.0     0.921793     0.085681     0.630366    Uiso  ? O
   O43        1.0     0.754915     0.088399     0.614484    Uiso  ? O
   O44        1.0     0.742660     0.295646     0.208572    Uiso  ? O
   O45        1.0     0.800470     0.268276     0.567779    Uiso  ? O
   O46        1.0     0.842798     0.221567     0.431348    Uiso  ? O
   O47        1.0     0.823612     0.383861     0.458402    Uiso  ? O
   O48        1.0     0.627225     0.432684     0.883136    Uiso  ? O
   O49        1.0     0.576671     0.563511     0.948364    Uiso  ? O
   O50        1.0     0.551728     0.759803     0.200225    Uiso  ? O
   O51        1.0     0.924444     0.791064     0.506583    Uiso  ? O
   O52        1.0     0.872973     0.779540     0.261276    Uiso  ? O
   O53        1.0     0.703919     0.777396     0.283648    Uiso  ? O
   O54        1.0     0.780809     0.725873     0.392088    Uiso  ? O
   O55        1.0     0.874671     0.921045     0.361044    Uiso  ? O
   O56        1.0     0.677473     0.930727     0.932007    Uiso  ? O
