
#======================================================================
# CRYSTAL DATA
#----------------------------------------------------------------------
data_VESTA_phase_1

_chemical_name_common                  '333-TEST-14                           '
_cell_length_a                         15.546207
_cell_length_b                         15.454722
_cell_length_c                         17.252918
_cell_angle_alpha                      89.024849
_cell_angle_beta                       89.409515
_cell_angle_gamma                      119.388023
_cell_volume                           3610.452247
_space_group_name_H-M_alt              'P 1'
_space_group_IT_number                 1

loop_
_space_group_symop_operation_xyz
   'x, y, z'

loop_
   _atom_site_label
   _atom_site_occupancy
   _atom_site_fract_x
   _atom_site_fract_y
   _atom_site_fract_z
   _atom_site_adp_type
   _atom_site_U_iso_or_equiv
   _atom_site_type_symbol
   Si1        1.0     0.123135     0.968715     0.097020    Uiso  ? Si
   Si2        1.0     0.993379     0.159872     0.219231    Uiso  ? Si
   Si3        1.0     0.156585     0.148984     0.987159    Uiso  ? Si
   Si4        1.0     0.163880     0.003552     0.448554    Uiso  ? Si
   Si5        1.0     0.147071     0.162073     0.329995    Uiso  ? Si
   Si6        1.0     0.187926    -0.001388     0.779908    Uiso  ? Si
   Si7        1.0     0.987982     0.156449     0.886038    Uiso  ? Si
   Si8        1.0     0.185909     0.158392     0.674881    Uiso  ? Si
   Si9        1.0     0.156511     0.312224     0.093691    Uiso  ? Si
   Si10       1.0     0.153781     0.474462    -0.002237    Uiso  ? Si
   Si11       1.0     0.170286     0.359057     0.414155    Uiso  ? Si
   Si12       1.0     0.004822     0.489198     0.877430    Uiso  ? Si
   Si13       1.0     0.020354     0.862828     0.242285    Uiso  ? Si
   Si14       1.0     0.106575     0.815517     0.986601    Uiso  ? Si
   Si15       1.0     0.199678     0.708109     0.444653    Uiso  ? Si
   Si16       1.0     0.205389     0.883207     0.344173    Uiso  ? Si
   Si17       1.0     0.173000     0.645609     0.776994    Uiso  ? Si
   Si18       1.0     0.987390     0.851677     0.865568    Uiso  ? Si
   Si19       1.0     0.197265     0.838942     0.683334    Uiso  ? Si
   Si20       1.0     0.509075     0.018228     0.114640    Uiso  ? Si
   Si21       1.0     0.510660     0.172437     0.987323    Uiso  ? Si
   Si22       1.0     0.516668     0.992085     0.453644    Uiso  ? Si
   Si23       1.0     0.310004     0.133293     0.566061    Uiso  ? Si
   Si24       1.0     0.526749     0.168288     0.347625    Uiso  ? Si
   Si25       1.0     0.523424     0.013971     0.773620    Uiso  ? Si
   Si26       1.0     0.342328     0.166763     0.890129    Uiso  ? Si
   Si27       1.0     0.486626     0.164612     0.669636    Uiso  ? Si
   Si28       1.0     0.526147     0.351230     0.070519    Uiso  ? Si
   Si29       1.0     0.341977     0.499173     0.174239    Uiso  ? Si
   Si30       1.0     0.534984     0.535738     0.997486    Uiso  ? Si
   Si31       1.0     0.471184     0.280842     0.456785    Uiso  ? Si
   Si32       1.0     0.508545     0.338967     0.782068    Uiso  ? Si
   Si33       1.0     0.355298     0.535377     0.908683    Uiso  ? Si
   Si34       1.0     0.483528     0.509882     0.695448    Uiso  ? Si
   Si35       1.0     0.531676     0.681046     0.108579    Uiso  ? Si
   Si36       1.0     0.355879     0.865583     0.232456    Uiso  ? Si
   Si37       1.0     0.512201     0.851673     0.018647    Uiso  ? Si
   Si38       1.0     0.524069     0.699411     0.439538    Uiso  ? Si
   Si39       1.0     0.343506     0.848625     0.567599    Uiso  ? Si
   Si40       1.0     0.531793     0.858503     0.328301    Uiso  ? Si
   Si41       1.0     0.498136     0.682299     0.793037    Uiso  ? Si
   Si42       1.0     0.507923     0.841289     0.666276    Uiso  ? Si
   Si43       1.0     0.833348     0.004867     0.102996    Uiso  ? Si
   Si44       1.0     0.670500     0.169058     0.223371    Uiso  ? Si
   Si45       1.0     0.826066     0.157619    -0.001924    Uiso  ? Si
   Si46       1.0     0.833179     0.994179     0.432126    Uiso  ? Si
   Si47       1.0     0.642881     0.155233     0.566248    Uiso  ? Si
   Si48       1.0     0.827353     0.145775     0.325157    Uiso  ? Si
   Si49       1.0     0.813146     0.019590     0.785789    Uiso  ? Si
   Si50       1.0     0.677826     0.167427     0.879905    Uiso  ? Si
   Si51       1.0     0.803805     0.181235     0.677906    Uiso  ? Si
   Si52       1.0     0.826802     0.322791     0.101618    Uiso  ? Si
   Si53       1.0     0.677224     0.474601     0.196189    Uiso  ? Si
   Si54       1.0     0.833389     0.486303     0.986829    Uiso  ? Si
   Si55       1.0     0.821490     0.293223     0.449994    Uiso  ? Si
   Si56       1.0     0.835197     0.352592     0.785029    Uiso  ? Si
   Si57       1.0     0.680284     0.508577     0.881504    Uiso  ? Si
   Si58       1.0     0.841749     0.519873     0.684953    Uiso  ? Si
   Si59       1.0     0.676444     0.837149     0.219673    Uiso  ? Si
   Si60       1.0     0.836387     0.868786     0.980632    Uiso  ? Si
   Si61       1.0     0.817704     0.644342     0.428934    Uiso  ? Si
   Si62       1.0     0.676225     0.861402     0.547939    Uiso  ? Si
   Si63       1.0     0.830728     0.825957     0.335083    Uiso  ? Si
   Si64       1.0     0.821096     0.689479     0.767225    Uiso  ? Si
   Si65       1.0     0.652654     0.858800     0.890525    Uiso  ? Si
   Si66       1.0     0.809646     0.852049     0.676060    Uiso  ? Si
   C1         1.0     0.252261     0.010230     0.121145    Uiso  ? C
   C2         1.0     0.040151     0.896090     0.462109    Uiso  ? C
   C3         1.0     0.236589     0.192045     0.250277    Uiso  ? C
   C4         1.0     0.039851     0.264977     0.819409    Uiso  ? C
   C5         1.0     0.065185     0.141685     0.647808    Uiso  ? C
   C6         1.0     0.235356     0.245892     0.753291    Uiso  ? C
   C7         1.0     0.144137     0.538997     0.083026    Uiso  ? C
   C8         1.0     0.142757     0.339906     0.520357    Uiso  ? C
   C9         1.0     0.082730     0.387432     0.360509    Uiso  ? C
   C10        1.0     0.301956     0.456807     0.404465    Uiso  ? C
   C11        1.0     0.965258     0.735954     0.205758    Uiso  ? C
   C12        1.0     0.110093     0.702828     0.016895    Uiso  ? C
   C13        1.0     0.228956     0.913491     0.952396    Uiso  ? C
   C14        1.0     0.094208     0.587400     0.473114    Uiso  ? C
   C15        1.0     0.276137     0.678517     0.381566    Uiso  ? C
   C16        1.0     0.191895     0.556648     0.717989    Uiso  ? C
   C17        1.0     0.258819     0.708770     0.854898    Uiso  ? C
   C18        1.0     0.089246     0.813819     0.626929    Uiso  ? C
   C19        1.0     0.416767     0.135256     0.291335    Uiso  ? C
   C20        1.0     0.428055     0.946740     0.847719    Uiso  ? C
   C21        1.0     0.418349     0.256561     0.125246    Uiso  ? C
   C22        1.0     0.425842     0.460944     0.217975    Uiso  ? C
   C23        1.0     0.279826     0.539304     0.243991    Uiso  ? C
   C24        1.0     0.410295     0.329614     0.392659    Uiso  ? C
   C25        1.0     0.521867     0.362095     0.540097    Uiso  ? C
   C26        1.0     0.301309     0.414346     0.864113    Uiso  ? C
   C27        1.0     0.359481     0.474680     0.657820    Uiso  ? C
   C28        1.0     0.585702     0.571906     0.623239    Uiso  ? C
   C29        1.0     0.260213     0.745739     0.196357    Uiso  ? C
   C30        1.0     0.377321     0.786641     0.012649    Uiso  ? C
   C31        1.0     0.427443     0.657964     0.516856    Uiso  ? C
   C32        1.0     0.547410     0.602874     0.400088    Uiso  ? C
   C33        1.0     0.957723     0.088365     0.459881    Uiso  ? C
   C34        1.0     0.884174     0.176163     0.602195    Uiso  ? C
   C35        1.0     0.933481     0.385787     0.166668    Uiso  ? C
   C36        1.0     0.796578     0.478405     0.213759    Uiso  ? C
   C37        1.0     0.698982     0.602441     0.202825    Uiso  ? C
   C38        1.0     0.585725     0.396816     0.272113    Uiso  ? C
   C39        1.0     0.873349     0.599942     0.040351    Uiso  ? C
   C40        1.0     0.817755     0.377774     0.375748    Uiso  ? C
   C41        1.0     0.921865     0.367905     0.517498    Uiso  ? C
   C42        1.0     0.966009     0.562491     0.643973    Uiso  ? C
   C43        1.0     0.741507     0.445835     0.618491    Uiso  ? C
   C44        1.0     0.812077     0.765221     0.045622    Uiso  ? C
   C45        1.0     0.713857     0.516733     0.418316    Uiso  ? C
   C46        1.0     0.932666     0.640696     0.406044    Uiso  ? C
   C47        1.0     0.822396     0.696098     0.525685    Uiso  ? C
   C48        1.0     0.935487     0.897537     0.639569    Uiso  ? C
   O1         1.0     0.113384     0.043681     0.034118    Uiso  ? O
   O2         1.0     0.041841     0.117403     0.282604    Uiso  ? O
   O3         1.0     0.152856     0.086998     0.395658    Uiso  ? O
   O4         1.0     0.076980     0.141787     0.923708    Uiso  ? O
   O5         1.0     0.172915     0.048938     0.701546    Uiso  ? O
   O6         1.0     0.076487     0.255260     0.165872    Uiso  ? O
   O7         1.0     0.180997     0.233575     0.051413    Uiso  ? O
   O8         1.0     0.116102     0.358358     0.026107    Uiso  ? O
   O9         1.0     0.162250     0.257845     0.377436    Uiso  ? O
   O10        1.0     0.084539     0.471368     0.925962    Uiso  ? O
   O11        1.0     0.058308     0.953246     0.176792    Uiso  ? O
   O12        1.0     0.071301     0.857627     0.060529    Uiso  ? O
   O13        1.0     0.115574     0.876589     0.292508    Uiso  ? O
   O14        1.0     0.168246     0.781688     0.396608    Uiso  ? O
   O15        1.0     0.239544     0.976101     0.401536    Uiso  ? O
   O16        1.0     0.061420     0.586575     0.819919    Uiso  ? O
   O17        1.0     0.022571     0.788827     0.920286    Uiso  ? O
   O18        1.0     0.084888     0.951738     0.831364    Uiso  ? O
   O19        1.0     0.181927     0.733240     0.716778    Uiso  ? O
   O20        1.0     0.212336     0.911168     0.756979    Uiso  ? O
   O21        1.0     0.495068     0.099817     0.062739    Uiso  ? O
   O22        1.0     0.211320     0.035515     0.535279    Uiso  ? O
   O23        1.0     0.266919     0.203362     0.600615    Uiso  ? O
   O24        1.0     0.510126     0.068202     0.392824    Uiso  ? O
   O25        1.0     0.281666     0.082499     0.826801    Uiso  ? O
   O26        1.0     0.403252     0.130073     0.946031    Uiso  ? O
   O27        1.0     0.262443     0.180436     0.943183    Uiso  ? O
   O28        1.0     0.375981     0.123610     0.635792    Uiso  ? O
   O29        1.0     0.484742     0.076287     0.721282    Uiso  ? O
   O30        1.0     0.551231     0.288327     0.006681    Uiso  ? O
   O31        1.0     0.258261     0.404509     0.125149    Uiso  ? O
   O32        1.0     0.484955     0.422584     0.032753    Uiso  ? O
   O33        1.0     0.379444     0.174035     0.489176    Uiso  ? O
   O34        1.0     0.549270     0.253876     0.411843    Uiso  ? O
   O35        1.0     0.422857     0.271033     0.847205    Uiso  ? O
   O36        1.0     0.522278     0.264001     0.722908    Uiso  ? O
   O37        1.0     0.451230     0.553168     0.957482    Uiso  ? O
   O38        1.0     0.269382     0.533792     0.966053    Uiso  ? O
   O39        1.0     0.473770     0.405644     0.731746    Uiso  ? O
   O40        1.0     0.414175     0.601985     0.122216    Uiso  ? O
   O41        1.0     0.580718     0.622077     0.063388    Uiso  ? O
   O42        1.0     0.403748     0.941777     0.157369    Uiso  ? O
   O43        1.0     0.300927     0.906489     0.290296    Uiso  ? O
   O44        1.0     0.544515     0.777920     0.061670    Uiso  ? O
   O45        1.0     0.547652     0.956891     0.062766    Uiso  ? O
   O46        1.0     0.252353     0.754374     0.527622    Uiso  ? O
   O47        1.0     0.409251     0.921659     0.495463    Uiso  ? O
   O48        1.0     0.297854     0.896572     0.627586    Uiso  ? O
   O49        1.0     0.443798     0.859313     0.278552    Uiso  ? O
   O50        1.0     0.497276     0.747555     0.363187    Uiso  ? O
   O51        1.0     0.556711     0.929777     0.403330    Uiso  ? O
   O52        1.0     0.397040     0.632086     0.847656    Uiso  ? O
   O53        1.0     0.513122     0.590415     0.765819    Uiso  ? O
   O54        1.0     0.406875     0.812061     0.619968    Uiso  ? O
   O55        1.0     0.485975     0.742586     0.718529    Uiso  ? O
   O56        1.0     0.538964     0.935838     0.720438    Uiso  ? O
   O57        1.0     0.921174     0.072003     0.162199    Uiso  ? O
   O58        1.0     0.584644     0.070806     0.184213    Uiso  ? O
   O59        1.0     0.623373     0.210649     0.287930    Uiso  ? O
   O60        1.0     0.925546     0.170264     0.956671    Uiso  ? O
   O61        1.0     0.785931     0.068100     0.063462    Uiso  ? O
   O62        1.0     0.591082     0.049271     0.523268    Uiso  ? O
   O63        1.0     0.564655     0.190298     0.596429    Uiso  ? O
   O64        1.0     0.928711     0.196782     0.271137    Uiso  ? O
   O65        1.0     0.741719     0.137636     0.268738    Uiso  ? O
   O66        1.0     0.798991     0.034544     0.355997    Uiso  ? O
   O67        1.0     0.912252     0.057068     0.837506    Uiso  ? O
   O68        1.0     0.630051     0.091137     0.809833    Uiso  ? O
   O69        1.0     0.740746     0.133809     0.935105    Uiso  ? O
   O70        1.0     0.588546     0.166978     0.928781    Uiso  ? O
   O71        1.0     0.693253     0.138482     0.643204    Uiso  ? O
   O72        1.0     0.810084     0.116305     0.750934    Uiso  ? O
   O73        1.0     0.727414     0.251299     0.154691    Uiso  ? O
   O74        1.0     0.854454     0.258890     0.042298    Uiso  ? O
   O75        1.0     0.630007     0.423969     0.111571    Uiso  ? O
   O76        1.0     0.929024     0.501299     0.935116    Uiso  ? O
   O77        1.0     0.798677     0.391314     0.046320    Uiso  ? O
   O78        1.0     0.719547     0.238138     0.504189    Uiso  ? O
   O79        1.0     0.839202     0.210429     0.402193    Uiso  ? O
   O80        1.0     0.747166     0.279244     0.844668    Uiso  ? O
   O81        1.0     0.837583     0.293723     0.707961    Uiso  ? O
   O82        1.0     0.941431     0.390994     0.826092    Uiso  ? O
   O83        1.0     0.609258     0.417161     0.825285    Uiso  ? O
   O84        1.0     0.742405     0.468498     0.930725    Uiso  ? O
   O85        1.0     0.619816     0.545519     0.937132    Uiso  ? O
   O86        1.0     0.821791     0.448097     0.763216    Uiso  ? O
   O87        1.0     0.591583     0.728748     0.188528    Uiso  ? O
   O88        1.0     0.742694     0.910674     0.148534    Uiso  ? O
   O89        1.0     0.624649     0.889720     0.268475    Uiso  ? O
   O90        1.0     0.916560     0.884804     0.911336    Uiso  ? O
   O91        1.0     0.879965     0.968795     0.033697    Uiso  ? O
   O92        1.0     0.626095     0.783136     0.479176    Uiso  ? O
   O93        1.0     0.755328     0.967236     0.506216    Uiso  ? O
   O94        1.0     0.594900     0.871050     0.601340    Uiso  ? O
   O95        1.0     0.940746     0.877562     0.295142    Uiso  ? O
   O96        1.0     0.748574     0.816378     0.273999    Uiso  ? O
   O97        1.0     0.799627     0.714451     0.364332    Uiso  ? O
   O98        1.0     0.832437     0.891970     0.407855    Uiso  ? O
   O99        1.0     0.753782     0.612285     0.835501    Uiso  ? O
   O100       1.0     0.838336     0.622665     0.703998    Uiso  ? O
   O101       1.0     0.927986     0.776008     0.796485    Uiso  ? O
   O102       1.0     0.593902     0.758039     0.841315    Uiso  ? O
   O103       1.0     0.730919     0.847281     0.944586    Uiso  ? O
   O104       1.0     0.712436     0.956624     0.835799    Uiso  ? O
   O105       1.0     0.572313     0.879059     0.935963    Uiso  ? O
   O106       1.0     0.732024     0.821087     0.605094    Uiso  ? O
   O107       1.0     0.768453     0.750030     0.730615    Uiso  ? O
   O108       1.0     0.811810     0.946682     0.718900    Uiso  ? O
   H1         1.0     0.274936     0.055350     0.172943    Uiso  ? H
   H2         1.0     0.304419     0.051837     0.073768    Uiso  ? H
   H3         1.0     0.259615     0.944514     0.133669    Uiso  ? H
   H4         1.0     0.042870     0.832646     0.488223    Uiso  ? H
   H5         1.0     0.004276     0.875514     0.406268    Uiso  ? H
   H6         1.0    -0.005293     0.914116     0.499916    Uiso  ? H
   H7         1.0     0.205966     0.130374     0.210118    Uiso  ? H
   H8         1.0     0.307802     0.203193     0.268686    Uiso  ? H
   H9         1.0     0.246824     0.258537     0.218427    Uiso  ? H
   H10        1.0     0.980071     0.271017     0.791679    Uiso  ? H
   H11        1.0     0.086185     0.259040     0.774205    Uiso  ? H
   H12        1.0     0.083008     0.333392     0.851138    Uiso  ? H
   H13        1.0     0.042019     0.107086     0.591628    Uiso  ? H
   H14        1.0     0.069869     0.214632     0.644605    Uiso  ? H
   H15        1.0     0.009220     0.096145     0.692118    Uiso  ? H
   H16        1.0     0.313881     0.272938     0.760327    Uiso  ? H
   H17        1.0     0.196347     0.215412     0.808777    Uiso  ? H
   H18        1.0     0.227302     0.310238     0.737307    Uiso  ? H
   H19        1.0     0.075387     0.541857     0.083944    Uiso  ? H
   H20        1.0     0.205892     0.614709     0.084483    Uiso  ? H
   H21        1.0     0.144744     0.498683     0.135531    Uiso  ? H
   H22        1.0     0.066443     0.283017     0.533349    Uiso  ? H
   H23        1.0     0.156933     0.409103     0.548265    Uiso  ? H
   H24        1.0     0.191785     0.315422     0.546317    Uiso  ? H
   H25        1.0     0.006899     0.335919     0.380109    Uiso  ? H
   H26        1.0     0.085614     0.377292     0.297953    Uiso  ? H
   H27        1.0     0.097543     0.463475     0.369824    Uiso  ? H
   H28        1.0     0.309810     0.530930     0.402007    Uiso  ? H
   H29        1.0     0.336283     0.448023     0.351859    Uiso  ? H
   H30        1.0     0.342817     0.451659     0.454128    Uiso  ? H
   H31        1.0     0.022235     0.724344     0.177637    Uiso  ? H
   H32        1.0     0.906647     0.719139     0.164507    Uiso  ? H
   H33        1.0     0.933775     0.683511     0.255083    Uiso  ? H
   H34        1.0     0.057450     0.637924     0.985385    Uiso  ? H
   H35        1.0     0.092478     0.687420     0.078981    Uiso  ? H
   H36        1.0     0.184237     0.713271     0.006756    Uiso  ? H
   H37        1.0     0.247771     0.899979     0.894299    Uiso  ? H
   H38        1.0     0.286665     0.920176     0.991824    Uiso  ? H
   H39        1.0     0.231033     0.985157     0.950516    Uiso  ? H
   H40        1.0     0.049422     0.592317     0.519902    Uiso  ? H
   H41        1.0     0.125464     0.541932     0.495713    Uiso  ? H
   H42        1.0     0.047231     0.549054     0.424360    Uiso  ? H
   H43        1.0     0.227213     0.623383     0.340566    Uiso  ? H
   H44        1.0     0.309064     0.643717     0.417041    Uiso  ? H
   H45        1.0     0.335504     0.739847     0.348973    Uiso  ? H
   H46        1.0     0.182948     0.492546     0.752947    Uiso  ? H
   H47        1.0     0.266550     0.594406     0.691939    Uiso  ? H
   H48        1.0     0.138640     0.528717     0.670855    Uiso  ? H
   H49        1.0     0.239589     0.762819     0.878121    Uiso  ? H
   H50        1.0     0.335701     0.747855     0.834815    Uiso  ? H
   H51        1.0     0.251762     0.657055     0.901535    Uiso  ? H
   H52        1.0     0.021392     0.771929     0.661948    Uiso  ? H
   H53        1.0     0.086532     0.769413     0.577128    Uiso  ? H
   H54        1.0     0.095647     0.883866     0.606091    Uiso  ? H
   H55        1.0     0.350962     0.103341     0.329222    Uiso  ? H
   H56        1.0     0.407143     0.079810     0.248605    Uiso  ? H
   H57        1.0     0.424612     0.200633     0.260218    Uiso  ? H
   H58        1.0     0.423769     0.997745     0.888808    Uiso  ? H
   H59        1.0     0.442331     0.893122     0.878704    Uiso  ? H
   H60        1.0     0.356863     0.907732     0.819086    Uiso  ? H
   H61        1.0     0.428100     0.194540     0.145136    Uiso  ? H
   H62        1.0     0.357279     0.228044     0.084247    Uiso  ? H
   H63        1.0     0.395537     0.285561     0.173607    Uiso  ? H
   H64        1.0     0.467826     0.449300     0.171988    Uiso  ? H
   H65        1.0     0.387612     0.392913     0.253676    Uiso  ? H
   H66        1.0     0.479066     0.520408     0.254104    Uiso  ? H
   H67        1.0     0.229617     0.479288     0.283261    Uiso  ? H
   H68        1.0     0.237609     0.569212     0.215032    Uiso  ? H
   H69        1.0     0.336816     0.598601     0.278097    Uiso  ? H
   H70        1.0     0.338524     0.308795     0.419957    Uiso  ? H
   H71        1.0     0.396854     0.297233     0.335453    Uiso  ? H
   H72        1.0     0.451842     0.410276     0.385320    Uiso  ? H
   H73        1.0     0.572041     0.439056     0.522518    Uiso  ? H
   H74        1.0     0.561416     0.338408     0.579154    Uiso  ? H
   H75        1.0     0.459072     0.359505     0.572227    Uiso  ? H
   H76        1.0     0.275795     0.356838     0.910350    Uiso  ? H
   H77        1.0     0.354652     0.405868     0.828011    Uiso  ? H
   H78        1.0     0.237446     0.400322     0.829417    Uiso  ? H
   H79        1.0     0.336937     0.414530     0.616288    Uiso  ? H
   H80        1.0     0.357467     0.537187     0.629023    Uiso  ? H
   H81        1.0     0.304518     0.448292     0.705248    Uiso  ? H
   H82        1.0     0.560609     0.553321     0.563783    Uiso  ? H
   H83        1.0     0.643403     0.551993     0.633381    Uiso  ? H
   H84        1.0     0.619349     0.652541     0.628939    Uiso  ? H
   H85        1.0     0.292582     0.703164     0.171782    Uiso  ? H
   H86        1.0     0.219722     0.760005     0.150730    Uiso  ? H
   H87        1.0     0.206970     0.700238     0.242193    Uiso  ? H
   H88        1.0     0.347298     0.785362     0.070538    Uiso  ? H
   H89        1.0     0.349412     0.709954    -0.005191    Uiso  ? H
   H90        1.0     0.350758     0.823810     0.973025    Uiso  ? H
   H91        1.0     0.364674     0.583740     0.509640    Uiso  ? H
   H92        1.0     0.399394     0.709977     0.522964    Uiso  ? H
   H93        1.0     0.462231     0.657668     0.571798    Uiso  ? H
   H94        1.0     0.545284     0.552231     0.446241    Uiso  ? H
   H95        1.0     0.619660     0.636783     0.370229    Uiso  ? H
   H96        1.0     0.490136     0.559460     0.358749    Uiso  ? H
   H97        1.0     0.988309     0.151374     0.418572    Uiso  ? H
   H98        1.0     0.007815     0.057632     0.459813    Uiso  ? H
   H99        1.0     0.957412     0.117193     0.516898    Uiso  ? H
   H100       1.0     0.859881     0.178914     0.543513    Uiso  ? H
   H101       1.0     0.880584     0.104013     0.610606    Uiso  ? H
   H102       1.0     0.960597     0.234936     0.607880    Uiso  ? H
   H103       1.0     0.962860     0.465979     0.170465    Uiso  ? H
   H104       1.0    -0.007615     0.371389     0.147049    Uiso  ? H
   H105       1.0     0.911617     0.353660     0.225493    Uiso  ? H
   H106       1.0     0.852473     0.519242     0.168704    Uiso  ? H
   H107       1.0     0.786937     0.403925     0.221217    Uiso  ? H
   H108       1.0     0.825007     0.516640     0.268402    Uiso  ? H
   H109       1.0     0.743711     0.651939     0.155138    Uiso  ? H
   H110       1.0     0.737945     0.632237     0.256941    Uiso  ? H
   H111       1.0     0.630351     0.605314     0.206248    Uiso  ? H
   H112       1.0     0.520601     0.336731     0.245983    Uiso  ? H
   H113       1.0     0.562113     0.441278     0.305276    Uiso  ? H
   H114       1.0     0.615569     0.363877     0.312454    Uiso  ? H
   H115       1.0     0.901809     0.663253    -0.000613    Uiso  ? H
   H116       1.0     0.932134     0.612458     0.080459    Uiso  ? H
   H117       1.0     0.811576     0.596676     0.073519    Uiso  ? H
   H118       1.0     0.883243     0.403342     0.337502    Uiso  ? H
   H119       1.0     0.822101     0.443358     0.402281    Uiso  ? H
   H120       1.0     0.751655     0.342946     0.340653    Uiso  ? H
   H121       1.0     0.933517     0.443589     0.511850    Uiso  ? H
   H122       1.0     0.992403     0.371419     0.504205    Uiso  ? H
   H123       1.0     0.901635     0.344341     0.578130    Uiso  ? H
   H124       1.0     0.971186     0.602168     0.589251    Uiso  ? H
   H125       1.0     0.980619     0.501346     0.632479    Uiso  ? H
   H126       1.0     0.022697     0.615504     0.681712    Uiso  ? H
   H127       1.0     0.671599     0.408071     0.651607    Uiso  ? H
   H128       1.0     0.752372     0.388188     0.591102    Uiso  ? H
   H129       1.0     0.734948     0.492182     0.572910    Uiso  ? H
   H130       1.0     0.881655     0.773726     0.067208    Uiso  ? H
   H131       1.0     0.770206     0.693871     0.017603    Uiso  ? H
   H132       1.0     0.767498     0.766938     0.094461    Uiso  ? H
   H133       1.0     0.714316     0.463211     0.460477    Uiso  ? H
   H134       1.0     0.718876     0.490923     0.360811    Uiso  ? H
   H135       1.0     0.642680     0.514349     0.422817    Uiso  ? H
   H136       1.0    -0.000189     0.713085     0.403654    Uiso  ? H
   H137       1.0     0.929207     0.602511     0.352115    Uiso  ? H
   H138       1.0     0.941028     0.596892     0.453084    Uiso  ? H
   H139       1.0     0.850455     0.776019     0.518266    Uiso  ? H
   H140       1.0     0.870533     0.684580     0.565538    Uiso  ? H
   H141       1.0     0.749114     0.664741     0.553220    Uiso  ? H
   H142       1.0     0.951014     0.954615     0.594611    Uiso  ? H
   H143       1.0     0.944484     0.838442     0.614139    Uiso  ? H
   H144       1.0     0.990006     0.931760     0.684921    Uiso  ? H
