
#======================================================================
# CRYSTAL DATA
#----------------------------------------------------------------------
data_VESTA_phase_1

_chemical_name_common                  '333-RV-1                              '
_cell_length_a                         14.748733
_cell_length_b                         14.792544
_cell_length_c                         16.743628
_cell_angle_alpha                      94.344841
_cell_angle_beta                       93.440262
_cell_angle_gamma                      114.767738
_cell_volume                           3290.397159
_space_group_name_H-M_alt              'P 1'
_space_group_IT_number                 1

loop_
_space_group_symop_operation_xyz
   'x, y, z'

loop_
   _atom_site_label
   _atom_site_occupancy
   _atom_site_fract_x
   _atom_site_fract_y
   _atom_site_fract_z
   _atom_site_adp_type
   _atom_site_U_iso_or_equiv
   _atom_site_type_symbol
   Si1        1.0     0.126060     0.985745     0.131594    Uiso  ? Si
   Si2        1.0     0.964640     0.128296     0.241927    Uiso  ? Si
   Si3        1.0     0.110227     0.133923     0.019609    Uiso  ? Si
   Si4        1.0     0.180688     0.993123     0.424271    Uiso  ? Si
   Si5        1.0     0.171707     0.161859     0.327275    Uiso  ? Si
   Si6        1.0     0.983057     0.235260     0.944511    Uiso  ? Si
   Si7        1.0     0.167353     0.345234     0.434333    Uiso  ? Si
   Si8        1.0     0.014431     0.525197     0.568707    Uiso  ? Si
   Si9        1.0     0.211200     0.520614     0.652853    Uiso  ? Si
   Si10       1.0    -0.012112     0.802339     0.217987    Uiso  ? Si
   Si11       1.0     0.197905     0.680890     0.416451    Uiso  ? Si
   Si12       1.0     0.197890     0.835612     0.299730    Uiso  ? Si
   Si13       1.0     0.177966     0.661658     0.782902    Uiso  ? Si
   Si14       1.0     0.021454     0.755952     0.927942    Uiso  ? Si
   Si15       1.0     0.170377     0.833493     0.680319    Uiso  ? Si
   Si16       1.0     0.519323     0.988939     0.104213    Uiso  ? Si
   Si17       1.0     0.564908     0.170425     0.004565    Uiso  ? Si
   Si18       1.0     0.469289     0.985461     0.453593    Uiso  ? Si
   Si19       1.0     0.279493     0.122459     0.584151    Uiso  ? Si
   Si20       1.0     0.500342     0.168197     0.355023    Uiso  ? Si
   Si21       1.0     0.483193     0.002740     0.799737    Uiso  ? Si
   Si22       1.0     0.467053     0.163984     0.703028    Uiso  ? Si
   Si23       1.0     0.477314     0.312741     0.074635    Uiso  ? Si
   Si24       1.0     0.283715     0.501197     0.138471    Uiso  ? Si
   Si25       1.0     0.362489     0.522672     0.535801    Uiso  ? Si
   Si26       1.0     0.420573     0.460478     0.259020    Uiso  ? Si
   Si27       1.0     0.523992     0.390701     0.753463    Uiso  ? Si
   Si28       1.0     0.557163     0.522232     0.620121    Uiso  ? Si
   Si29       1.0     0.431447     0.587192     0.007284    Uiso  ? Si
   Si30       1.0     0.340301     0.831352     0.174204    Uiso  ? Si
   Si31       1.0     0.523510     0.814732    -0.000456    Uiso  ? Si
   Si32       1.0     0.460325     0.632753     0.392527    Uiso  ? Si
   Si33       1.0     0.328960     0.846330     0.560081    Uiso  ? Si
   Si34       1.0     0.474447     0.826218     0.322925    Uiso  ? Si
   Si35       1.0     0.345761     0.839469     0.899036    Uiso  ? Si
   Si36       1.0     0.500787     0.849686     0.674157    Uiso  ? Si
   Si37       1.0     0.814104     0.949907     0.120293    Uiso  ? Si
   Si38       1.0     0.663976     0.153478     0.247095    Uiso  ? Si
   Si39       1.0     0.830655     0.053841     0.519167    Uiso  ? Si
   Si40       1.0     0.834590     0.159442     0.363897    Uiso  ? Si
   Si41       1.0     0.826736     0.044907     0.831431    Uiso  ? Si
   Si42       1.0     0.618599     0.498175     0.185906    Uiso  ? Si
   Si43       1.0     0.845643     0.358057     0.444761    Uiso  ? Si
   Si44       1.0     0.736693     0.557100     0.511636    Uiso  ? Si
   Si45       1.0     0.851041     0.526302     0.658706    Uiso  ? Si
   Si46       1.0     0.804244     0.630714     0.111979    Uiso  ? Si
   Si47       1.0     0.852515     0.802910     0.001266    Uiso  ? Si
   Si48       1.0     0.700883     0.867521     0.596041    Uiso  ? Si
   Si49       1.0     0.879128     0.711498     0.772632    Uiso  ? Si
   Si50       1.0     0.705306     0.844700     0.892262    Uiso  ? Si
   Si51       1.0     0.901908     0.923183     0.717738    Uiso  ? Si
   H1         1.0     0.182282     0.037369     0.210113    Uiso  ? H
   H2         1.0     0.957946     0.204735     0.192786    Uiso  ? H
   H3         1.0     0.117863     0.081230    -0.057575    Uiso  ? H
   H4         1.0     0.206838     0.222350     0.046759    Uiso  ? H
   H5         1.0     0.263345     0.184124     0.287463    Uiso  ? H
   H6         1.0     0.940149     0.292091    -0.005669    Uiso  ? H
   H7         1.0     0.187092     0.418152     0.673403    Uiso  ? H
   H8         1.0     0.031431     0.623270     0.542429    Uiso  ? H
   H9         1.0     0.242458     0.609207     0.403194    Uiso  ? H
   H10        1.0     0.087416     0.628315     0.418426    Uiso  ? H
   H11        1.0     0.085321     0.596089     0.815583    Uiso  ? H
   H12        1.0     0.120743     0.836066     0.917519    Uiso  ? H
   H13        1.0     0.081627     0.801393     0.620107    Uiso  ? H
   H14        1.0     0.509725     0.164589     0.925951    Uiso  ? H
   H15        1.0     0.563072    -0.002505     0.499767    Uiso  ? H
   H16        1.0     0.181523     0.066261     0.616659    Uiso  ? H
   H17        1.0     0.567623     0.037597     0.863688    Uiso  ? H
   H18        1.0     0.410254     0.279543     0.139875    Uiso  ? H
   H19        1.0     0.311229     0.595679     0.191603    Uiso  ? H
   H20        1.0     0.408690     0.364270     0.286551    Uiso  ? H
   H21        1.0     0.446802     0.426206     0.774779    Uiso  ? H
   H22        1.0     0.510601     0.556165     0.034377    Uiso  ? H
   H23        1.0     0.304853     0.880501     0.962655    Uiso  ? H
   H24        1.0     0.783469     0.018834     0.077761    Uiso  ? H
   H25        1.0     0.716574     0.239478     0.201966    Uiso  ? H
   H26        1.0     0.757548     0.053050     0.767918    Uiso  ? H
   H27        1.0     0.814835     0.417566     0.390819    Uiso  ? H
   H28        1.0     0.703935     0.494156     0.432992    Uiso  ? H
   H29        1.0     0.790988     0.456437     0.713695    Uiso  ? H
   H30        1.0     0.669777     0.768576     0.550719    Uiso  ? H
   H31        1.0     0.780497     0.669226     0.803840    Uiso  ? H
   H32        1.0     0.661571     0.798354     0.810042    Uiso  ? H
   H33        1.0    -0.009309    -0.026812     0.674336    Uiso  ? H
   H34        1.0     0.188972     0.970608     0.999393    Uiso  ? H
   H35        1.0     0.213124     0.893055     0.065282    Uiso  ? H
   H36        1.0     0.288017     0.023108     0.079198    Uiso  ? H
   H37        1.0     0.114110     0.843847     0.493361    Uiso  ? H
   H38        1.0     0.015107     0.852115     0.433595    Uiso  ? H
   H39        1.0     0.062953     0.926793     0.527704    Uiso  ? H
   H40        1.0     0.056559     0.357085     0.847122    Uiso  ? H
   H41        1.0     0.114523     0.273352     0.850345    Uiso  ? H
   H42        1.0     0.147754     0.374062     0.928309    Uiso  ? H
   H43        1.0     0.110172     0.261426     0.556709    Uiso  ? H
   H44        1.0     0.012553     0.223717     0.476861    Uiso  ? H
   H45        1.0     0.049760     0.340535     0.535754    Uiso  ? H
   H46        1.0     0.089531     0.450166     0.380221    Uiso  ? H
   H47        1.0     0.061467     0.341857     0.312974    Uiso  ? H
   H48        1.0     0.183119     0.444153     0.320094    Uiso  ? H
   H49        1.0     0.893285     0.786602     0.335030    Uiso  ? H
   H50        1.0     0.857851     0.852598     0.264395    Uiso  ? H
   H51        1.0     0.971815     0.915489     0.326457    Uiso  ? H
   H52        1.0     0.100665     0.646074     0.964466    Uiso  ? H
   H53        1.0     0.968608     0.580800     0.953857    Uiso  ? H
   H54        1.0     0.031683     0.662165     0.043797    Uiso  ? H
   H55        1.0     0.175839     0.997221     0.725232    Uiso  ? H
   H56        1.0     0.246632     0.963773     0.797053    Uiso  ? H
   H57        1.0     0.112664     0.907686     0.791383    Uiso  ? H
   H58        1.0     0.732269     0.292948     0.978030    Uiso  ? H
   H59        1.0     0.720681     0.168428     0.958695    Uiso  ? H
   H60        1.0     0.742213     0.226138     0.059375    Uiso  ? H
   H61        1.0     0.260562     0.269640     0.542485    Uiso  ? H
   H62        1.0     0.387179     0.299616     0.573103    Uiso  ? H
   H63        1.0     0.302635     0.287547     0.647013    Uiso  ? H
   H64        1.0     0.412976     0.054917     0.232424    Uiso  ? H
   H65        1.0     0.407094     0.172218     0.229831    Uiso  ? H
   H66        1.0     0.326988     0.080585     0.287570    Uiso  ? H
   H67        1.0     0.533659     0.349273     0.370619    Uiso  ? H
   H68        1.0     0.562283     0.309983     0.462779    Uiso  ? H
   H69        1.0     0.435440     0.275758     0.426300    Uiso  ? H
   H70        1.0     0.587457     0.233913     0.604512    Uiso  ? H
   H71        1.0     0.583330     0.117369     0.628665    Uiso  ? H
   H72        1.0     0.649912     0.227656     0.696729    Uiso  ? H
   H73        1.0     0.358915     0.344976    -0.015405    Uiso  ? H
   H74        1.0     0.355829     0.225602    -0.045016    Uiso  ? H
   H75        1.0     0.455460     0.335481     0.930301    Uiso  ? H
   H76        1.0     0.111911     0.417736     0.177445    Uiso  ? H
   H77        1.0     0.127916     0.350088     0.091628    Uiso  ? H
   H78        1.0     0.110977     0.461410     0.081378    Uiso  ? H
   H79        1.0     0.688863     0.411618     0.817368    Uiso  ? H
   H80        1.0     0.607938     0.415363     0.890864    Uiso  ? H
   H81        1.0     0.669931     0.521697     0.839417    Uiso  ? H
   H82        1.0     0.588470     0.694869     0.671325    Uiso  ? H
   H83        1.0     0.670595     0.654083     0.722724    Uiso  ? H
   H84        1.0     0.544676     0.611848     0.745709    Uiso  ? H
   H85        1.0     0.341439     0.587198     0.877081    Uiso  ? H
   H86        1.0     0.365959     0.479233    -0.121516    Uiso  ? H
   H87        1.0     0.463706     0.596403    -0.135586    Uiso  ? H
   H88        1.0     0.202284     0.666396     0.129416    Uiso  ? H
   H89        1.0     0.302975     0.691017     0.068134    Uiso  ? H
   H90        1.0     0.221463     0.750703     0.055547    Uiso  ? H
   H91        1.0     0.643200     0.947124     0.297834    Uiso  ? H
   H92        1.0     0.639159     0.825875     0.301840    Uiso  ? H
   H93        1.0     0.642789     0.899823     0.391742    Uiso  ? H
   H94        1.0     0.437217     0.677601     0.710296    Uiso  ? H
   H95        1.0     0.383888     0.747942     0.761119    Uiso  ? H
   H96        1.0     0.506794     0.765608     0.795131    Uiso  ? H
   H97        1.0     0.668071     0.785743     0.103670    Uiso  ? H
   H98        1.0     0.654933     0.867050     0.180512    Uiso  ? H
   H99        1.0     0.733829     0.805490     0.198936    Uiso  ? H
   H100       1.0     0.921026     0.220763     0.600120    Uiso  ? H
   H101       1.0     0.906759     0.122036     0.658805    Uiso  ? H
   H102       1.0     0.802716     0.149779     0.635657    Uiso  ? H
   H103       1.0     0.894414     0.950467     0.440466    Uiso  ? H
   H104       1.0     0.946493     0.976395     0.542607    Uiso  ? H
   H105       1.0    -0.005063     0.067997     0.474831    Uiso  ? H
   H106       1.0     0.734154     0.421474     0.218716    Uiso  ? H
   H107       1.0     0.620511     0.361156     0.261892    Uiso  ? H
   H108       1.0     0.710990     0.479960     0.306683    Uiso  ? H
   H109       1.0     0.784949     0.271131     0.564017    Uiso  ? H
   H110       1.0     0.695386     0.214761     0.478770    Uiso  ? H
   H111       1.0     0.708866     0.329821     0.531133    Uiso  ? H
   H112       1.0     0.795831     0.721284     0.457035    Uiso  ? H
   H113       1.0     0.895151     0.685546     0.478791    Uiso  ? H
   H114       1.0     0.849026     0.735002     0.558330    Uiso  ? H
   H115       1.0     0.727921     0.466264     0.031558    Uiso  ? H
   H116       1.0     0.818075     0.469557     0.108601    Uiso  ? H
   H117       1.0     0.858395     0.527421     0.020597    Uiso  ? H
   H118       1.0     0.618485     0.674251     0.332725    Uiso  ? H
   H119       1.0     0.611055     0.606735     0.416960    Uiso  ? H
   H120       1.0     0.642124     0.737190     0.432296    Uiso  ? H
   C1         1.0     0.211004     0.965767     0.062110    Uiso  ? C
   C2         1.0     0.083489     0.895692     0.473986    Uiso  ? C
   C3         1.0     0.085084     0.317491     0.887567    Uiso  ? C
   C4         1.0     0.077046     0.288220     0.508679    Uiso  ? C
   C5         1.0     0.121120     0.400613     0.354362    Uiso  ? C
   C6         1.0     0.921646     0.843281     0.292799    Uiso  ? C
   C7         1.0     0.031371     0.652101     0.978140    Uiso  ? C
   C8         1.0     0.177413     0.934881     0.756080    Uiso  ? C
   C9         1.0     0.702499     0.218603    -0.000211    Uiso  ? C
   C10        1.0     0.309958     0.256877     0.587087    Uiso  ? C
   C11        1.0     0.402644     0.114075     0.268706    Uiso  ? C
   C12        1.0     0.509599     0.287278     0.408051    Uiso  ? C
   C13        1.0     0.582573     0.187763     0.653792    Uiso  ? C
   C14        1.0     0.405656     0.303972    -0.023001    Uiso  ? C
   C15        1.0     0.146010     0.425753     0.120269    Uiso  ? C
   C16        1.0     0.632774     0.439368     0.832312    Uiso  ? C
   C17        1.0     0.593184     0.630722     0.696546    Uiso  ? C
   C18        1.0     0.397274     0.560306    -0.103194    Uiso  ? C
   C19        1.0     0.259886     0.724524     0.100016    Uiso  ? C
   C20        1.0     0.612371     0.879018     0.328096    Uiso  ? C
   C21        1.0     0.454470     0.751314     0.741531    Uiso  ? C
   C22        1.0     0.708461     0.842962     0.154544    Uiso  ? C
   C23        1.0     0.868694     0.145438     0.611602    Uiso  ? C
   C24        1.0     0.926044     0.009162     0.491754    Uiso  ? C
   C25        1.0     0.675867     0.434438     0.248886    Uiso  ? C
   C26        1.0     0.749494     0.286711     0.510493    Uiso  ? C
   C27        1.0     0.826908     0.687256     0.500609    Uiso  ? C
   C28        1.0     0.802254     0.512834     0.063652    Uiso  ? C
   C29        1.0     0.596281     0.667331     0.394116    Uiso  ? C
   O1         1.0     0.081137     0.058298     0.089741    Uiso  ? O
   O2         1.0     0.081344     0.147700     0.258999    Uiso  ? O
   O3         1.0     0.137042     0.058462     0.371350    Uiso  ? O
   O4         1.0     0.022581     0.173841     0.005307    Uiso  ? O
   O5         1.0     0.195696     0.256551     0.393942    Uiso  ? O
   O6         1.0     0.121021     0.520226     0.591008    Uiso  ? O
   O7         1.0     0.034076     0.880938     0.151230    Uiso  ? O
   O8         1.0     0.079561     0.785612     0.265189    Uiso  ? O
   O9         1.0     0.219427     0.750278     0.342047    Uiso  ? O
   O10        1.0     0.226887     0.936339     0.361524    Uiso  ? O
   O11        1.0     0.224721     0.591813     0.736318    Uiso  ? O
   O12        1.0     0.156128     0.730803     0.720954    Uiso  ? O
   O13        1.0     0.517381     0.056766     0.032970    Uiso  ? O
   O14        1.0     0.269825     0.072686     0.490705    Uiso  ? O
   O15        1.0     0.483831     0.093138     0.426233    Uiso  ? O
   O16        1.0     0.367016     0.107638     0.639242    Uiso  ? O
   O17        1.0     0.456789     0.094189     0.776783    Uiso  ? O
   O18        1.0     0.539924     0.243204     0.070224    Uiso  ? O
   O19        1.0     0.273368     0.429772     0.481908    Uiso  ? O
   O20        1.0     0.315157     0.563286     0.609186    Uiso  ? O
   O21        1.0     0.336545     0.436230     0.182540    Uiso  ? O
   O22        1.0     0.468973     0.268488     0.745443    Uiso  ? O
   O23        1.0     0.444037     0.487117     0.575707    Uiso  ? O
   O24        1.0     0.560739     0.428082     0.665036    Uiso  ? O
   O25        1.0     0.329261     0.527167     0.051139    Uiso  ? O
   O26        1.0     0.405498     0.928237     0.126998    Uiso  ? O
   O27        1.0     0.268082     0.867019     0.226288    Uiso  ? O
   O28        1.0     0.474440     0.708744     0.037339    Uiso  ? O
   O29        1.0     0.560747     0.908003     0.070463    Uiso  ? O
   O30        1.0     0.420105     0.612968     0.481799    Uiso  ? O
   O31        1.0     0.400832     0.528802     0.331175    Uiso  ? O
   O32        1.0     0.245647     0.749792     0.502893    Uiso  ? O
   O33        1.0     0.376638     0.943270     0.510306    Uiso  ? O
   O34        1.0     0.273214     0.871846     0.633712    Uiso  ? O
   O35        1.0     0.418815     0.806137     0.231254    Uiso  ? O
   O36        1.0     0.430171     0.719650     0.362008    Uiso  ? O
   O37        1.0     0.442047     0.905012     0.373666    Uiso  ? O
   O38        1.0     0.258814     0.731100     0.858776    Uiso  ? O
   O39        1.0     0.441292     0.821865     0.934637    Uiso  ? O
   O40        1.0     0.382620     0.917035     0.830752    Uiso  ? O
   O41        1.0     0.420416     0.820469     0.594135    Uiso  ? O
   O42        1.0     0.515814     0.957938     0.720020    Uiso  ? O
   O43        1.0     0.896085     0.016346     0.197302    Uiso  ? O
   O44        1.0     0.590152     0.056939     0.184043    Uiso  ? O
   O45        1.0     0.607937     0.186474     0.316655    Uiso  ? O
   O46        1.0     0.927014     0.139266     0.331305    Uiso  ? O
   O47        1.0     0.744282     0.118229     0.290617    Uiso  ? O
   O48        1.0     0.797025     0.100137     0.441931    Uiso  ? O
   O49        1.0     0.890364     0.154978     0.879905    Uiso  ? O
   O50        1.0     0.561001     0.429081     0.100616    Uiso  ? O
   O51        1.0     0.534850     0.521860     0.233211    Uiso  ? O
   O52        1.0     0.872580     0.279509     0.386282    Uiso  ? O
   O53        1.0     0.952065     0.435340     0.497383    Uiso  ? O
   O54        1.0     0.635352     0.549944     0.551239    Uiso  ? O
   O55        1.0     0.953324     0.509700     0.649898    Uiso  ? O
   O56        1.0     0.791967     0.504218     0.568555    Uiso  ? O
   O57        1.0     0.706940     0.604295     0.164798    Uiso  ? O
   O58        1.0     0.909709     0.693496     0.169805    Uiso  ? O
   O59        1.0     0.959327     0.809749     0.974927    Uiso  ? O
   O60        1.0     0.794523     0.701252     0.043720    Uiso  ? O
   O61        1.0     0.870186     0.903735     0.057572    Uiso  ? O
   O62        1.0     0.728667     0.953835     0.534974    Uiso  ? O
   O63        1.0     0.610802     0.866630     0.647168    Uiso  ? O
   O64        1.0     0.875664     0.642289     0.690679    Uiso  ? O
   O65        1.0     0.964063     0.708151     0.837045    Uiso  ? O
   O66        1.0     0.781790     0.796238     0.919540    Uiso  ? O
   O67        1.0     0.762271     0.966602     0.893157    Uiso  ? O
   O68        1.0     0.619022     0.819261     0.953828    Uiso  ? O
   O69        1.0     0.799317     0.887636     0.657766    Uiso  ? O
   O70        1.0     0.908113     0.825683     0.752137    Uiso  ? O
   O71        1.0     0.903181     0.002912     0.791535    Uiso  ? O
