LAMMPS (2 Aug 2023 - Update 2)
# Initialization
# units           real
# dimension       3
# boundary        p p p
# atom_style      full
# timestep        0.5   # fs

variable       T equal 300.0   # temperature
variable       Td equal 50.0  # damping time
variable       P equal 1.0  # pressure
variable       nevery equal 10
variable       nrepeat equal 10
variable       nfreq equal 100
variable       nthermo equal 100 # steps for thermo output

variable       nrun equal 500*100
variable       seed string 123456  # random seed

# read restart file after equilibration
read_restart restart.equil
Reading restart file ...
  restart file = 2 Aug 2023, LAMMPS = 2 Aug 2023
  restoring atom style full from restart
  triclinic box = (0 0 0) to (14.6913 12.723 15.9631) with tilt (-7.3456 0 0)
  pair style reaxff stores no restart info
  243 atoms
Finding 1-2 1-3 1-4 neighbors ...
     0 = max # of 1-2 neighbors
     0 = max # of 1-3 neighbors
     0 = max # of 1-4 neighbors
     1 = max # of special neighbors
  read_restart CPU = 0.007 seconds

# Read the initial sctructure
# box tilt large
# variable structure string 333SiO2-1-UFF-c

# Assign the force field
pair_style reaxff NULL safezone 3.0 mincap 150
# pair_coeff * * CHONSSi.ff O Si
# pair_coeff * * CHOSiNa.ff O Si
# pair_coeff * * SiOCHN_2018.ff C H O Si
# pair_coeff * * PDMSDecomp.ff Si O
# pair_coeff * * CHONSi.ff C H O Si
pair_coeff * * CHOFe.ff O Si

# fix myqeq all qeq/reaxff 1 0.0 10.0 1.0e-6 reaxff maxiter 400
fix myask2 all acks2/reaxff 1 0.0 10.0 1.0e-6 reaxff maxiter 400

neighbor        2 bin
neigh_modify    every 10 delay 0 check no

# # Energy minimization
# print "*****Minimization starts.*****"
# minimize 1.0e-6 1.0e-6 100 1000
# min_style cg
# # Save the optimized structure

# # equilibration
# print "*****Equilibration starts.*****"
# reset_timestep 0

# # Save trajectory
# unfix          equil1
# if "$(is_defined(dump,dump1))" then "undump dump1"

# # Save the equilibrated structure

# Print system info
thermo          100
thermo_style    custom step pe etotal temp press vol

# main simulation
print "*****Main simulation starts.*****"
*****Main simulation starts.*****
reset_timestep 0
fix             fluct all nvt temp 300 300 50

# set up the dipole calculation
variable   chunkID atom 1
compute    mychunk all chunk/atom v_chunkID nchunk once ids once
compute    dipole all dipole/chunk mychunk

variable V equal vol
fix kout all ave/time 10 10 100 c_dipole[*]         file dipole.out mode vector title1 "# Dipole moments (echarge*A), Volume (A^3)"

run             50000

CITE-CITE-CITE-CITE-CITE-CITE-CITE-CITE-CITE-CITE-CITE-CITE-CITE

Your simulation uses code contributions which should be cited:

- pair reaxff command: doi:10.1016/j.parco.2011.08.005

@Article{Aktulga12,
 author = {H. M. Aktulga and J. C. Fogarty and S. A. Pandit and A. Y. Grama},
 title = {Parallel Reactive Molecular Dynamics: {N}umerical Methods and Algorithmic Techniques},
 journal = {Parallel Computing},
 year =    2012,
 volume =  38,
 number =  {4--5},
 pages =   {245--259}
}

- fix acks2/reaxff command: doi:10.1137/18M1224684

@Article{O'Hearn2020,
 author = {K. A. {O'Hearn} and A. Alperen and H. M. Aktulga},
 title = {Fast Solvers for Charge Distribution Models on Shared Memory Platforms},
 journal = {SIAM J.\ Sci.\ Comput.},
 year =    2020,
 volume =  42,
 number =  1,
 pages =   {1--22}
}

CITE-CITE-CITE-CITE-CITE-CITE-CITE-CITE-CITE-CITE-CITE-CITE-CITE

Step         PotEng         TotEng          Temp          Press          Volume
0  -29592.846     -29399.948      267.4105       67349.146      2983.7813
Averages over the last 251 of 501 rows, steps 25000 to 50000:
PotEng TotEng Temp Press Volume
-29584.4 -29368.4 299.445 72375.3 2983.78
Loop time of 2214.68 on 12 procs for 50000 steps with 243 atoms

print "Volume: $(vol)"
Volume: 2983.7813059746904401
