LAMMPS (2 Aug 2023 - Update 2)

# variable T index 300 400 500  #
# label T_loop

# Initialization
units           real
dimension       3
boundary        p p p
atom_style      full
timestep        0.5   # fs

variable       Tl equal 300.0   # low temperature
variable       Th equal 900.0  # high temperature 2100.0
variable       Td equal 50.0  # damping time
variable       P equal 1.0  # pressure
variable       Ph equal 1.0  # pressure
variable       Pd equal 10*50

variable       nevery equal 1000
variable       nrepeat equal 1
variable       nfreq equal 1000*1
variable       nthermo equal 1000/10
variable       nheat equal (900-300)*100

variable FF string "* * CHONSi.ff C H O Si"          # force field args for pair_coeff
# pair_coeff * * CHONSSi.ff C H O Si
# pair_coeff * * CHOSiNa.ff C H O Si
# pair_coeff * * SiOCHN_2018.ff C H O Si
# pair_coeff * * PDMSDecomp.ff C H O Si
# pair_coeff * * CHONSi.ff C H O Si
# pair_coeff * * CHOFe.ff O Si

# box tilt large
variable structure string 333-RV-32
# Read the initial sctructure
read_data       333-RV-32.data
Reading data file ...
  triclinic box = (0 0 0) to (15.7087 13.0868 17.5248) with tilt (-8.2042 -0.1458 -2.0056)
  reading atoms ...
  331 atoms
Finding 1-2 1-3 1-4 neighbors ...
     0 = max # of 1-2 neighbors
     0 = max # of 1-3 neighbors
     0 = max # of 1-4 neighbors
     1 = max # of special neighbors

# Assign the force field
pair_style reaxff NULL safezone 3.0 mincap 150
pair_coeff * * CHONSi.ff C H O Si
# Charge equilibration for ReaxFF
fix myqeq all qeq/reaxff 1 0.0 10.0 1.0e-6 reaxff maxiter 400

neighbor        5.0 bin
neigh_modify    every 10 delay 0 check yes

# # Energy minimization
# print "##### Minimization starts.##### "
# # fix min1 all nve
# minimize 1.0e-6 1.0e-6 100 1000
# # unfix min1
# # Save the optimized structure

# # Print system info
# thermo_style    custom step temp press density vol pe etotal

# reset_timestep 0

velocity        all create 300 12345

# # equilibration at low T
# print "##### Equilibration starts.##### "
# # 1 ps = 1e3 fs / 0.5 fs = 2e3 steps = 20 nruns
# # Save trajectory
# undump dump1
# unfix             equil1
# reset_timestep  0

# Heat to high T
print "##### Heat starts.##### "
##### Heat starts.#####
# out put bonds and species information
fix bondinfo all reaxff/bonds 100 bonds/bonds.reaxff

# compute MSD and RDF
variable PE equal pe
compute msd1 all msd
fix myMSD all ave/time 10 10 100 c_msd1[1] c_msd1[2] c_msd1[3] c_msd1[4] v_PE c_thermo_temp     file msd.out     title2 "# TimeStep MSD_X MSD_Y MSD_Z MSD_Total PotE Temperture"
# C-C C-Si Si-O C-H Si-Si
compute rdf1 all rdf 100  1 1 1 4 3 4 1 2  cutoff 5.0
fix myRDF all ave/time 1000 1 1000 c_rdf1[*]     file rdf.out mode vector     title3 "# Row r g1(r) coor1(r) ..."

# unfix           equil1
fix             nve1 all nve
fix             heat1T all temp/berendsen 300 900 50
thermo          100
thermo_style    custom step temp press pe vol density
dump dump2 all custom 100 dump/dump_heat.lammpstrj   id   type   x   y   z   q
run             60000

CITE-CITE-CITE-CITE-CITE-CITE-CITE-CITE-CITE-CITE-CITE-CITE-CITE

Your simulation uses code contributions which should be cited:

- pair reaxff command: doi:10.1016/j.parco.2011.08.005

@Article{Aktulga12,
 author = {H. M. Aktulga and J. C. Fogarty and S. A. Pandit and A. Y. Grama},
 title = {Parallel Reactive Molecular Dynamics: {N}umerical Methods and Algorithmic Techniques},
 journal = {Parallel Computing},
 year =    2012,
 volume =  38,
 number =  {4--5},
 pages =   {245--259}
}

- fix qeq/reaxff command: doi:10.1016/j.parco.2011.08.005

@Article{Aktulga12,
 author = {H. M. Aktulga and J. C. Fogarty and S. A. Pandit and A. Y. Grama},
 title = {Parallel Reactive Molecular Dynamics: {N}umerical Methods and Algorithmic Techniques},
 journal = {Parallel Computing},
 year =    2012,
 volume =  38,
 pages =   {245--259}
}

CITE-CITE-CITE-CITE-CITE-CITE-CITE-CITE-CITE-CITE-CITE-CITE-CITE

Step          Temp          Press          PotEng         Volume        Density
0   300            144799.92     -34729.82       3602.6891      1.400369
Averages over the last 301 of 601 rows, steps 30000 to 60000:
Temp Press PotEng Volume Density
745.102 1173.99 -36092.9 3602.69 1.40037
Loop time of 10880 on 12 procs for 60000 steps with 331 atoms

# # final equilibration at low T
# print "##### final equilibration starts.##### "
# unfix             heat1
# # 1 ps = 1e3 fs / 0.5 fs = 2e3 steps = 20 nruns

write_data  333-RV-32-an.data
System init for write_data ...
##### 333-RV-32 Final Density: 1.4003689818506392939 #####
