LAMMPS (2 Aug 2023 - Update 2)

include init.in

# set log file
# log log.elastic

# Define MD parameters
variable nevery equal 5                 # sampling interval
variable nrepeat equal 20                 # times to use input values for calculating averages
variable nfreq equal 5*20
variable nthermo equal 100

variable temp equal 300.0                # temperature of initial sample
variable timestep equal 0.5               # timestep
variable adiabatic equal 2                # adiabatic (1) or isothermal (2)
variable tdamp equal 50.0                 # time constant for temperature
variable pdamp equal 10*50
variable up equal 2.0e-3                  # the deformation magnitude
variable thermostat equal 1               # 0 if NVE, 1 if NPT, 2 if NVT
variable delta index 1.0e-6               # Born numdiff strain magnitude

# read initial structure
units           real
dimension       3
boundary        p p p
atom_style      full

# read initial structure
# read_data 333SiO2-1-UFF-c_eq.data
read_data 333SiO2-1-UFF-c.data
Reading data file ...
  triclinic box = (0 0 0) to (14.6913 12.723 15.9631) with tilt (-7.3456 0 0)
  reading atoms ...
  243 atoms
Finding 1-2 1-3 1-4 neighbors ...
     0 = max # of 1-2 neighbors
     0 = max # of 1-3 neighbors
     0 = max # of 1-4 neighbors
     1 = max # of special neighbors
variable nequil equal 1000*100
variable nrun equal 1000*100
variable seed index 123456                # seed for thermostat 123456

thermo 100
thermo_style custom step temp pe press

# Energy minimization
print "##### Minimization starts."
##### Minimization starts.
minimize 1.0e-6 1.0e-6 100 1000
Step          Temp          PotEng         Press
0   0              0              0
Loop time of 3.108e-05 on 12 procs for 1 steps with 243 atoms

Minimization stats:
  Stopping criterion = search direction is not downhill
  Energy initial, next-to-last, final =
  Force two-norm initial, final = 0 0
  Force max component initial, final = 0 0
  Final line search alpha, max atom move = 0 0
  Iterations, force evaluations = 1 0

min_style cg
# Save the optimized structure
write_data sio2_opt.data
System init for write_data ...
reset_timestep 0
timestep 0.5

velocity        all create 300 123456 dist gaussian
# equilibration
variable thermostat equal 2               # 0 if NVE, 1 if NPT, 2 if NVT
equil: 2
include ff.in
if "$(is_defined(fix,5))" then "unfix 5"
if "$(is_defined(fix,6))" then "unfix 6"
reset_timestep 0

# Assign the force field
pair_style reaxff NULL safezone 3.0 mincap 150
# pair_coeff * * CHONSSi.ff O Si
# pair_coeff * * CHOSiNa.ff O Si
# pair_coeff * * SiOCHN_2018.ff O Si
# pair_coeff * * PDMSDecomp.ff Si O
# pair_coeff * * CHONSi.ff C H O Si
pair_coeff * * CHOFe.ff O Si

# charge method for reaxff
fix myqeq all qeq/reaxff 1 0.0 10.0 1.0e-6 reaxff maxiter 400
# Setup neighbor style
neighbor        2 bin
neigh_modify    every 10 delay 0 check no

# Setup MD
# 0 if NVE, 1 if NPT, 2 if NVT

fix 6 all nvt temp 300 300 50
md: 2
# save trajectory
dump dump_opt all custom 100 dump_opt.lammpstrj id type x y z
run 100000

CITE-CITE-CITE-CITE-CITE-CITE-CITE-CITE-CITE-CITE-CITE-CITE-CITE

Your simulation uses code contributions which should be cited:

- pair reaxff command: doi:10.1016/j.parco.2011.08.005

@Article{Aktulga12,
 author = {H. M. Aktulga and J. C. Fogarty and S. A. Pandit and A. Y. Grama},
 title = {Parallel Reactive Molecular Dynamics: {N}umerical Methods and Algorithmic Techniques},
 journal = {Parallel Computing},
 year =    2012,
 volume =  38,
 number =  {4--5},
 pages =   {245--259}
}

- fix qeq/reaxff command: doi:10.1016/j.parco.2011.08.005

@Article{Aktulga12,
 author = {H. M. Aktulga and J. C. Fogarty and S. A. Pandit and A. Y. Grama},
 title = {Parallel Reactive Molecular Dynamics: {N}umerical Methods and Algorithmic Techniques},
 journal = {Parallel Computing},
 year =    2012,
 volume =  38,
 pages =   {245--259}
}

CITE-CITE-CITE-CITE-CITE-CITE-CITE-CITE-CITE-CITE-CITE-CITE-CITE

Step          Temp          PotEng         Press
0   300           -36881.566      21554.575
Averages over the last 501 of 1001 rows, steps 50000 to 100000:
Temp PotEng Press
301.2 -36713.9 12940.5
Loop time of 4871.04 on 12 procs for 100000 steps with 243 atoms

write_data sio2_eq.data
System init for write_data ...
undump dump_opt
reset_timestep 0

variable thermostat equal 2               # 0 if NVE, 1 if NPT, 2 if NVT
##### Main run: 2
include ff.in
if "$(is_defined(fix,5))" then "unfix 5"
if "$(is_defined(fix,6))" then "unfix 6"
unfix 6
reset_timestep 0

# Assign the force field
pair_style reaxff NULL safezone 3.0 mincap 150
# pair_coeff * * CHONSSi.ff O Si
# pair_coeff * * CHOSiNa.ff O Si
# pair_coeff * * SiOCHN_2018.ff O Si
# pair_coeff * * PDMSDecomp.ff Si O
# pair_coeff * * CHONSi.ff C H O Si
pair_coeff * * CHOFe.ff O Si

# charge method for reaxff
fix myqeq all qeq/reaxff 1 0.0 10.0 1.0e-6 reaxff maxiter 400
# Setup neighbor style
neighbor        2 bin
neigh_modify    every 10 delay 0 check no

# Setup MD
# 0 if NVE, 1 if NPT, 2 if NVT

fix 6 all nvt temp 300 300 50
md: 2
include calc.in
# Setup output
# Born term, 2nd derivative of energy
compute     vir all pressure NULL virial
compute     born all born/matrix numdiff 1.0e-6 vir
fix 	    avborn all ave/time 5 20 100 c_born[*] ave running             file born.out
fix         avvir all ave/time 1 1 1 c_vir[*]             file vir.out

thermo		100
thermo_style custom step temp pe press
thermo_modify norm no

# save trajectory
dump dump_main all custom 100 dump_main.lammpstrj id type x y z
run 100000
Step          Temp          PotEng         Press
0   326.53328     -36735.346      10405.015
Averages over the last 501 of 1001 rows, steps 50000 to 100000:
Temp PotEng Press
299.631 -36715.5 12738.8
Loop time of 17448.3 on 12 procs for 100000 steps with 243 atoms

# summarize sampling protocol
Stress sampling interval = 5
variable tmp equal 100000/5
Stress sample count = 20000
Born sampling interval = 5
variable tmp equal 100000/5
Born sample count = 20000

# output the result
# print ""
# print "Output the tensor to C.lmp.log"

print "done!"
done!
