
#======================================================================
# CRYSTAL DATA
#----------------------------------------------------------------------
data_VESTA_phase_1

_chemical_name_common                  '333-TEST-20                           '
_cell_length_a                         15.508641
_cell_length_b                         15.757122
_cell_length_c                         16.932693
_cell_angle_alpha                      92.964439
_cell_angle_beta                       87.914314
_cell_angle_gamma                      121.588753
_cell_volume                           3519.832395
_space_group_name_H-M_alt              'P 1'
_space_group_IT_number                 1

loop_
_space_group_symop_operation_xyz
   'x, y, z'

loop_
   _atom_site_label
   _atom_site_occupancy
   _atom_site_fract_x
   _atom_site_fract_y
   _atom_site_fract_z
   _atom_site_adp_type
   _atom_site_U_iso_or_equiv
   _atom_site_type_symbol
   Si1        1.0     0.173088     0.990250     0.472648    Uiso  ? Si
   Si2        1.0     0.991850     0.178169     0.551237    Uiso  ? Si
   Si3        1.0     0.158433     0.200780     0.297494    Uiso  ? Si
   Si4        1.0     0.114779     0.979554     0.754157    Uiso  ? Si
   Si5        1.0     0.987554     0.158457     0.885709    Uiso  ? Si
   Si6        1.0     0.135689     0.147057     0.655796    Uiso  ? Si
   Si7        1.0     0.003206     0.485313     0.195550    Uiso  ? Si
   Si8        1.0     0.174325     0.494389     0.957753    Uiso  ? Si
   Si9        1.0     0.163753     0.330235     0.446675    Uiso  ? Si
   Si10       1.0     0.016107     0.490382     0.563055    Uiso  ? Si
   Si11       1.0     0.157494     0.319301     0.779219    Uiso  ? Si
   Si12       1.0     0.989973     0.502586     0.893584    Uiso  ? Si
   Si13       1.0     0.148822     0.491826     0.693679    Uiso  ? Si
   Si14       1.0     0.984958     0.796022     0.233080    Uiso  ? Si
   Si15       1.0     0.197337     0.856454     0.988178    Uiso  ? Si
   Si16       1.0     0.175024     0.682237     0.456392    Uiso  ? Si
   Si17       1.0     0.000463     0.807489     0.561892    Uiso  ? Si
   Si18       1.0     0.164236     0.835340     0.348650    Uiso  ? Si
   Si19       1.0     0.142159     0.658545     0.795072    Uiso  ? Si
   Si20       1.0     0.146108     0.810441     0.672428    Uiso  ? Si
   Si21       1.0     0.496648     0.005945     0.112412    Uiso  ? Si
   Si22       1.0     0.330026     0.168238     0.271659    Uiso  ? Si
   Si23       1.0     0.552407     0.214462     0.044490    Uiso  ? Si
   Si24       1.0     0.502688     0.998040     0.459731    Uiso  ? Si
   Si25       1.0     0.331018     0.164456     0.570924    Uiso  ? Si
   Si26       1.0     0.498098     0.153305     0.358397    Uiso  ? Si
   Si27       1.0     0.493343     0.001288     0.782409    Uiso  ? Si
   Si28       1.0     0.373595     0.194772     0.951953    Uiso  ? Si
   Si29       1.0     0.487505     0.159226     0.681902    Uiso  ? Si
   Si30       1.0     0.502732     0.544988     0.980332    Uiso  ? Si
   Si31       1.0     0.513671     0.318238     0.464248    Uiso  ? Si
   Si32       1.0     0.345957     0.462133     0.541855    Uiso  ? Si
   Si33       1.0     0.510765     0.468919     0.346125    Uiso  ? Si
   Si34       1.0     0.334152     0.501965     0.854700    Uiso  ? Si
   Si35       1.0     0.539480     0.537624     0.633401    Uiso  ? Si
   Si36       1.0     0.520060     0.706247     0.101212    Uiso  ? Si
   Si37       1.0     0.343379     0.856577     0.230633    Uiso  ? Si
   Si38       1.0     0.510825     0.852090     0.990250    Uiso  ? Si
   Si39       1.0     0.340111     0.842906     0.569241    Uiso  ? Si
   Si40       1.0     0.505180     0.850243     0.333400    Uiso  ? Si
   Si41       1.0     0.508205     0.678416     0.753746    Uiso  ? Si
   Si42       1.0     0.341167     0.817269     0.882564    Uiso  ? Si
   Si43       1.0     0.516856     0.854921     0.672260    Uiso  ? Si
   Si44       1.0     0.835819     0.004525     0.108520    Uiso  ? Si
   Si45       1.0     0.647843     0.140490     0.235566    Uiso  ? Si
   Si46       1.0     0.814741     0.138484     0.998735    Uiso  ? Si
   Si47       1.0     0.839704     0.007771     0.438896    Uiso  ? Si
   Si48       1.0     0.657983     0.164530     0.573068    Uiso  ? Si
   Si49       1.0     0.812112     0.149344     0.349462    Uiso  ? Si
   Si50       1.0     0.829432     0.002338     0.761434    Uiso  ? Si
   Si51       1.0     0.664790     0.169188     0.900166    Uiso  ? Si
   Si52       1.0     0.822396     0.166403     0.667420    Uiso  ? Si
   Si53       1.0     0.819291     0.295733     0.120846    Uiso  ? Si
   Si54       1.0     0.812015     0.453509     0.014057    Uiso  ? Si
   Si55       1.0     0.831611     0.305430     0.472833    Uiso  ? Si
   Si56       1.0     0.697267     0.507878     0.548955    Uiso  ? Si
   Si57       1.0     0.886681     0.545032     0.317891    Uiso  ? Si
   Si58       1.0     0.827492     0.330611     0.777504    Uiso  ? Si
   Si59       1.0     0.842213     0.488937     0.671728    Uiso  ? Si
   Si60       1.0     0.844794     0.645187     0.100599    Uiso  ? Si
   Si61       1.0     0.682715     0.859487     0.229377    Uiso  ? Si
   Si62       1.0     0.840372     0.673156     0.425911    Uiso  ? Si
   Si63       1.0     0.681300     0.860555     0.554547    Uiso  ? Si
   Si64       1.0     0.827051     0.827706     0.339840    Uiso  ? Si
   Si65       1.0     0.669296     0.841027     0.875077    Uiso  ? Si
   Si66       1.0     0.829169     0.833232     0.652978    Uiso  ? Si
   C1         1.0     0.177657     0.277884     0.210674    Uiso  ? C
   C2         1.0     0.102350     0.050420     0.458791    Uiso  ? C
   C3         1.0     0.051925     0.071822     0.276924    Uiso  ? C
   C4         1.0    -0.004957     0.902810     0.810191    Uiso  ? C
   C5         1.0     0.045905     0.111808     0.949040    Uiso  ? C
   C6         1.0     0.105510     0.463534     0.220776    Uiso  ? C
   C7         1.0     0.034344     0.539612     0.099676    Uiso  ? C
   C8         1.0     0.157300     0.382781     0.006993    Uiso  ? C
   C9         1.0     0.248122     0.606179     0.021967    Uiso  ? C
   C10        1.0     0.143294     0.424169     0.408702    Uiso  ? C
   C11        1.0     0.050376     0.885645     0.154369    Uiso  ? C
   C12        1.0     0.118694     0.749191     0.049531    Uiso  ? C
   C13        1.0     0.255513     0.973767     0.046900    Uiso  ? C
   C14        1.0     0.126789     0.856365     0.902858    Uiso  ? C
   C15        1.0     0.196445     0.631488     0.363629    Uiso  ? C
   C16        1.0     0.247327     0.047429     0.223107    Uiso  ? C
   C17        1.0     0.402531     0.263780     0.198409    Uiso  ? C
   C18        1.0     0.610142     0.313890     0.123439    Uiso  ? C
   C19        1.0     0.212547     0.085553     0.813974    Uiso  ? C
   C20        1.0     0.382171     0.092874     0.897184    Uiso  ? C
   C21        1.0     0.401334     0.299613     0.888224    Uiso  ? C
   C22        1.0     0.263083     0.171284     0.017206    Uiso  ? C
   C23        1.0     0.550500     0.267536     0.751315    Uiso  ? C
   C24        1.0     0.464773     0.448959     0.055674    Uiso  ? C
   C25        1.0     0.601592     0.560426     0.907368    Uiso  ? C
   C26        1.0     0.340621     0.570284     0.510440    Uiso  ? C
   C27        1.0     0.286923     0.399211     0.632736    Uiso  ? C
   C28        1.0     0.279112     0.594355     0.677474    Uiso  ? C
   C29        1.0     0.387523     0.440254     0.306370    Uiso  ? C
   C30        1.0     0.559167     0.583980     0.407637    Uiso  ? C
   C31        1.0     0.602126     0.510999     0.261913    Uiso  ? C
   C32        1.0     0.500540     0.438998     0.704701    Uiso  ? C
   C33        1.0     0.414408     0.604764     0.156202    Uiso  ? C
   C34        1.0     0.277461     0.731673     0.183487    Uiso  ? C
   C35        1.0     0.433196     0.715607     0.349675    Uiso  ? C
   C36        1.0     0.959424     0.118514     0.132021    Uiso  ? C
   C37        1.0     0.857670     0.900864     0.086640    Uiso  ? C
   C38        1.0     0.924318     0.232584     0.290697    Uiso  ? C
   C39        1.0     0.708845     0.430484     0.948640    Uiso  ? C
   C40        1.0     0.765874     0.453733     0.269897    Uiso  ? C
   C41        1.0     0.777347     0.334515     0.392619    Uiso  ? C
   C42        1.0     0.935739     0.538619     0.412711    Uiso  ? C
   C43        1.0     0.868352     0.585999     0.748911    Uiso  ? C
   C44        1.0     0.723494     0.639880     0.116098    Uiso  ? C
   C45        1.0     0.898328     0.706301     0.003962    Uiso  ? C
   C46        1.0     0.585313     0.771230     0.487170    Uiso  ? C
   C47        1.0     0.761091     0.817466     0.918564    Uiso  ? C
   C48        1.0     0.777102     0.731276     0.722274    Uiso  ? C
   O1         1.0     0.040144     0.134991     0.609063    Uiso  ? O
   O2         1.0     0.095833     0.035705     0.683527    Uiso  ? O
   O3         1.0     0.085907     0.283159     0.521938    Uiso  ? O
   O4         1.0     0.129395     0.245133     0.376572    Uiso  ? O
   O5         1.0     0.071819     0.264572     0.847881    Uiso  ? O
   O6         1.0     0.158813     0.229665     0.727408    Uiso  ? O
   O7         1.0     0.062739     0.469625     0.930024    Uiso  ? O
   O8         1.0     0.082934     0.458791     0.612229    Uiso  ? O
   O9         1.0     0.126890     0.389318     0.734252    Uiso  ? O
   O10        1.0     0.095457     0.594933     0.517777    Uiso  ? O
   O11        1.0     0.106319     0.901655     0.533830    Uiso  ? O
   O12        1.0     0.066543     0.791287     0.290234    Uiso  ? O
   O13        1.0     0.142806     0.758934     0.420644    Uiso  ? O
   O14        1.0     0.188589     0.940385     0.390623    Uiso  ? O
   O15        1.0     0.056833     0.619509     0.866545    Uiso  ? O
   O16        1.0     0.110038     0.552200     0.751513    Uiso  ? O
   O17        1.0     0.041692     0.754102     0.618920    Uiso  ? O
   O18        1.0     0.129421     0.730705     0.738052    Uiso  ? O
   O19        1.0     0.158147     0.910765     0.714892    Uiso  ? O
   O20        1.0     0.260457     0.202193     0.323264    Uiso  ? O
   O21        1.0     0.498380     0.102806     0.081444    Uiso  ? O
   O22        1.0     0.283894     0.065287     0.512864    Uiso  ? O
   O23        1.0     0.241028     0.183074     0.604682    Uiso  ? O
   O24        1.0     0.398455     0.150533     0.332095    Uiso  ? O
   O25        1.0     0.470653     0.049045     0.395350    Uiso  ? O
   O26        1.0     0.468799     0.237863     0.014340    Uiso  ? O
   O27        1.0     0.386218     0.150240     0.645328    Uiso  ? O
   O28        1.0     0.455488     0.055153     0.724973    Uiso  ? O
   O29        1.0     0.413298     0.260787     0.521163    Uiso  ? O
   O30        1.0     0.548755     0.242348     0.427007    Uiso  ? O
   O31        1.0     0.281731     0.373281     0.472633    Uiso  ? O
   O32        1.0     0.496440     0.371958     0.392799    Uiso  ? O
   O33        1.0     0.272189     0.386796     0.817339    Uiso  ? O
   O34        1.0     0.396824     0.512463     0.933184    Uiso  ? O
   O35        1.0     0.244992     0.524186     0.876066    Uiso  ? O
   O36        1.0     0.466745     0.500416     0.555282    Uiso  ? O
   O37        1.0     0.550110     0.656367     0.025824    Uiso  ? O
   O38        1.0     0.388309     0.938357     0.159743    Uiso  ? O
   O39        1.0     0.264159     0.863252     0.293610    Uiso  ? O
   O40        1.0     0.486482     0.777790     0.062674    Uiso  ? O
   O41        1.0     0.513921     0.948767     0.034941    Uiso  ? O
   O42        1.0     0.281539     0.749911     0.505022    Uiso  ? O
   O43        1.0     0.408769     0.946809     0.523465    Uiso  ? O
   O44        1.0     0.252450     0.843310     0.625033    Uiso  ? O
   O45        1.0     0.443018     0.879548     0.277208    Uiso  ? O
   O46        1.0     0.523328     0.915375     0.416487    Uiso  ? O
   O47        1.0     0.411600     0.578893     0.789941    Uiso  ? O
   O48        1.0     0.548771     0.638170     0.678580    Uiso  ? O
   O49        1.0     0.256619     0.719143     0.831258    Uiso  ? O
   O50        1.0     0.425151     0.798941     0.920755    Uiso  ? O
   O51        1.0     0.393642     0.911816     0.825195    Uiso  ? O
   O52        1.0     0.290694     0.840568     0.958179    Uiso  ? O
   O53        1.0     0.420163     0.827441     0.617347    Uiso  ? O
   O54        1.0     0.479066     0.755798     0.722807    Uiso  ? O
   O55        1.0     0.545723     0.950864     0.730207    Uiso  ? O
   O56        1.0     0.586392     0.041122     0.177346    Uiso  ? O
   O57        1.0     0.572906     0.171789     0.281497    Uiso  ? O
   O58        1.0     0.911618     0.181255     0.939002    Uiso  ? O
   O59        1.0     0.786015     0.032580     0.036055    Uiso  ? O
   O60        1.0     0.942856     0.101586     0.475253    Uiso  ? O
   O61        1.0     0.609118     0.080280     0.501382    Uiso  ? O
   O62        1.0     0.566693     0.175395     0.610035    Uiso  ? O
   O63        1.0     0.709193     0.124099     0.303054    Uiso  ? O
   O64        1.0     0.799929     0.042366     0.366590    Uiso  ? O
   O65        1.0     0.926796     0.071606     0.817519    Uiso  ? O
   O66        1.0     0.575860     0.079460     0.846628    Uiso  ? O
   O67        1.0     0.721615     0.124979     0.947325    Uiso  ? O
   O68        1.0     0.618124     0.212765     0.966421    Uiso  ? O
   O69        1.0     0.907334     0.193825     0.597944    Uiso  ? O
   O70        1.0     0.709684     0.130750     0.636407    Uiso  ? O
   O71        1.0     0.805611     0.073472     0.714883    Uiso  ? O
   O72        1.0     0.719788     0.229130     0.175760    Uiso  ? O
   O73        1.0     0.846581     0.220524     0.072507    Uiso  ? O
   O74        1.0     0.903324     0.370564     0.184399    Uiso  ? O
   O75        1.0     0.913833     0.506503     0.959031    Uiso  ? O
   O76        1.0     0.805371     0.356692     0.052731    Uiso  ? O
   O77        1.0     0.749442     0.272982     0.545651    Uiso  ? O
   O78        1.0     0.831119     0.205858     0.437635    Uiso  ? O
   O79        1.0     0.944077     0.392465     0.505109    Uiso  ? O
   O80        1.0     0.606523     0.398903     0.519862    Uiso  ? O
   O81        1.0     0.651934     0.568505     0.597637    Uiso  ? O
   O82        1.0     0.978107     0.554540     0.257059    Uiso  ? O
   O83        1.0     0.739931     0.259557     0.841552    Uiso  ? O
   O84        1.0     0.864208     0.264484     0.726921    Uiso  ? O
   O85        1.0     0.922837     0.420826     0.824813    Uiso  ? O
   O86        1.0     0.944638     0.510806     0.623474    Uiso  ? O
   O87        1.0     0.767107     0.489260     0.605989    Uiso  ? O
   O88        1.0     0.788351     0.380286     0.715775    Uiso  ? O
   O89        1.0     0.823107     0.530773     0.087109    Uiso  ? O
   O90        1.0     0.913513     0.690309     0.182233    Uiso  ? O
   O91        1.0     0.616070     0.773632     0.160838    Uiso  ? O
   O92        1.0     0.759000     0.964572     0.186711    Uiso  ? O
   O93        1.0     0.612428     0.879587     0.290568    Uiso  ? O
   O94        1.0     0.758390     0.572766     0.472043    Uiso  ? O
   O95        1.0     0.874406     0.643319     0.341582    Uiso  ? O
   O96        1.0     0.935663     0.737561     0.485862    Uiso  ? O
   O97        1.0     0.758057     0.965203     0.511131    Uiso  ? O
   O98        1.0     0.621592     0.883478     0.626343    Uiso  ? O
   O99        1.0     0.919413     0.833878     0.286671    Uiso  ? O
   O100       1.0     0.740471     0.816469     0.279689    Uiso  ? O
   O101       1.0     0.788533     0.735437     0.399824    Uiso  ? O
   O102       1.0     0.863773     0.925651     0.398604    Uiso  ? O
   O103       1.0     0.589012     0.737852     0.824663    Uiso  ? O
   O104       1.0     0.728491     0.930984     0.813204    Uiso  ? O
   O105       1.0     0.613903     0.875288     0.942903    Uiso  ? O
   O106       1.0     0.930320     0.841295     0.610993    Uiso  ? O
   O107       1.0     0.747847     0.815913     0.585910    Uiso  ? O
   O108       1.0     0.859060     0.939141     0.699693    Uiso  ? O
   H1         1.0     0.238672     0.355781     0.218672    Uiso  ? H
   H2         1.0     0.107709     0.276962     0.200878    Uiso  ? H
   H3         1.0     0.192877     0.246147     0.156417    Uiso  ? H
   H4         1.0     0.064661     0.048087     0.515083    Uiso  ? H
   H5         1.0     0.041701     0.007882     0.416285    Uiso  ? H
   H6         1.0     0.148514     0.127602     0.441302    Uiso  ? H
   H7         1.0     0.061660     0.016886     0.305366    Uiso  ? H
   H8         1.0     0.045676     0.054377     0.213395    Uiso  ? H
   H9         1.0     0.979678     0.062347     0.297721    Uiso  ? H
   H10        1.0     0.974786     0.825383     0.814314    Uiso  ? H
   H11        1.0     0.934146     0.905299     0.782724    Uiso  ? H
   H12        1.0     0.001787     0.934264     0.870492    Uiso  ? H
   H13        1.0     0.098265     0.097521     0.914659    Uiso  ? H
   H14        1.0    -0.012640     0.041521     0.974457    Uiso  ? H
   H15        1.0     0.087454     0.165355    -0.002614    Uiso  ? H
   H16        1.0     0.180269     0.531835     0.224450    Uiso  ? H
   H17        1.0     0.106755     0.417727     0.169896    Uiso  ? H
   H18        1.0     0.092770     0.421530     0.273486    Uiso  ? H
   H19        1.0     0.021159     0.481912     0.054741    Uiso  ? H
   H20        1.0     0.113321     0.598629     0.096440    Uiso  ? H
   H21        1.0    -0.011404     0.570777     0.087057    Uiso  ? H
   H22        1.0     0.194048     0.405191     0.064998    Uiso  ? H
   H23        1.0     0.190013     0.345441     0.972380    Uiso  ? H
   H24        1.0     0.076427     0.328132     0.016092    Uiso  ? H
   H25        1.0     0.327985     0.633291     0.008798    Uiso  ? H
   H26        1.0     0.234364     0.588692     0.084367    Uiso  ? H
   H27        1.0     0.235899     0.666963     0.010871    Uiso  ? H
   H28        1.0     0.154819     0.482339     0.452263    Uiso  ? H
   H29        1.0     0.064514     0.386267     0.389456    Uiso  ? H
   H30        1.0     0.193329     0.457802     0.357751    Uiso  ? H
   H31        1.0     0.006403     0.857032     0.100106    Uiso  ? H
   H32        1.0     0.123925     0.894329     0.142474    Uiso  ? H
   H33        1.0     0.061945     0.958821     0.169333    Uiso  ? H
   H34        1.0     0.167348     0.747615     0.093742    Uiso  ? H
   H35        1.0     0.089151     0.681919     0.011283    Uiso  ? H
   H36        1.0     0.055274     0.747602     0.080620    Uiso  ? H
   H37        1.0     0.326067     0.031838     0.021090    Uiso  ? H
   H38        1.0     0.274715     0.959934     0.104089    Uiso  ? H
   H39        1.0     0.203741     0.000515     0.056309    Uiso  ? H
   H40        1.0     0.070045     0.780957     0.881599    Uiso  ? H
   H41        1.0     0.176865     0.895596     0.853026    Uiso  ? H
   H42        1.0     0.087032     0.894455     0.921898    Uiso  ? H
   H43        1.0     0.240970     0.695899     0.326878    Uiso  ? H
   H44        1.0     0.123692     0.582874     0.334675    Uiso  ? H
   H45        1.0     0.236546     0.592580     0.367412    Uiso  ? H
   H46        1.0     0.291790     0.014390     0.204074    Uiso  ? H
   H47        1.0     0.212707     0.055157     0.171210    Uiso  ? H
   H48        1.0     0.188251     0.997782     0.264016    Uiso  ? H
   H49        1.0     0.353705     0.287866     0.175702    Uiso  ? H
   H50        1.0     0.424340     0.232981     0.147856    Uiso  ? H
   H51        1.0     0.470309     0.329657     0.222226    Uiso  ? H
   H52        1.0     0.691492     0.358647     0.128360    Uiso  ? H
   H53        1.0     0.581191     0.280431     0.180844    Uiso  ? H
   H54        1.0     0.582812     0.364062     0.113851    Uiso  ? H
   H55        1.0     0.196396     0.145494     0.815324    Uiso  ? H
   H56        1.0     0.287029     0.113685     0.786118    Uiso  ? H
   H57        1.0     0.214046     0.066204     0.874583    Uiso  ? H
   H58        1.0     0.428670     0.073965     0.930504    Uiso  ? H
   H59        1.0     0.422149     0.123353     0.841484    Uiso  ? H
   H60        1.0     0.312278     0.023420     0.882430    Uiso  ? H
   H61        1.0     0.365777     0.275503     0.830087    Uiso  ? H
   H62        1.0     0.483318     0.347642     0.879557    Uiso  ? H
   H63        1.0     0.373434     0.344660     0.917015    Uiso  ? H
   H64        1.0     0.190737     0.104342     0.001985    Uiso  ? H
   H65        1.0     0.253672     0.235616     0.015121    Uiso  ? H
   H66        1.0     0.280590     0.165837     0.078112    Uiso  ? H
   H67        1.0     0.603040     0.333290     0.717915    Uiso  ? H
   H68        1.0     0.595363     0.257620     0.794195    Uiso  ? H
   H69        1.0     0.496778     0.281852     0.783126    Uiso  ? H
   H70        1.0     0.482573     0.392163     0.036652    Uiso  ? H
   H71        1.0     0.382639     0.409985     0.066486    Uiso  ? H
   H72        1.0     0.502267     0.482116     0.112309    Uiso  ? H
   H73        1.0     0.609958     0.611911     0.862445    Uiso  ? H
   H74        1.0     0.583958     0.489680     0.878079    Uiso  ? H
   H75        1.0     0.674749     0.592874     0.936666    Uiso  ? H
   H76        1.0     0.350367     0.573410     0.446072    Uiso  ? H
   H77        1.0     0.398035     0.641981     0.536991    Uiso  ? H
   H78        1.0     0.266649     0.560477     0.524744    Uiso  ? H
   H79        1.0     0.305551     0.341344     0.634549    Uiso  ? H
   H80        1.0     0.205003     0.362647     0.628115    Uiso  ? H
   H81        1.0     0.314713     0.446264     0.686338    Uiso  ? H
   H82        1.0     0.305619     0.634446     0.734393    Uiso  ? H
   H83        1.0     0.335998     0.580134     0.652850    Uiso  ? H
   H84        1.0     0.273866     0.644805     0.638223    Uiso  ? H
   H85        1.0     0.382303     0.421065     0.243024    Uiso  ? H
   H86        1.0     0.380044     0.505688     0.315367    Uiso  ? H
   H87        1.0     0.325287     0.378249     0.337205    Uiso  ? H
   H88        1.0     0.595843     0.644476     0.365758    Uiso  ? H
   H89        1.0     0.614891     0.599170     0.452284    Uiso  ? H
   H90        1.0     0.496948     0.587114     0.436307    Uiso  ? H
   H91        1.0     0.582751     0.558631     0.231209    Uiso  ? H
   H92        1.0     0.598930     0.455235     0.219008    Uiso  ? H
   H93        1.0     0.680497     0.559588     0.281408    Uiso  ? H
   H94        1.0     0.563062     0.461057     0.745372    Uiso  ? H
   H95        1.0     0.484571     0.370048     0.672632    Uiso  ? H
   H96        1.0     0.433250     0.422769     0.739745    Uiso  ? H
   H97        1.0     0.443100     0.571841     0.195115    Uiso  ? H
   H98        1.0     0.359859     0.545703     0.115685    Uiso  ? H
   H99        1.0     0.373343     0.631427     0.192824    Uiso  ? H
   H100       1.0     0.305218     0.734852     0.122925    Uiso  ? H
   H101       1.0     0.195554     0.699998     0.183841    Uiso  ? H
   H102       1.0     0.290608     0.680883     0.215166    Uiso  ? H
   H103       1.0     0.482804     0.686396     0.355481    Uiso  ? H
   H104       1.0     0.382044     0.674824     0.300502    Uiso  ? H
   H105       1.0     0.387541     0.701095     0.403635    Uiso  ? H
   H106       1.0     0.969997     0.186110     0.107074    Uiso  ? H
   H107       1.0     0.020159     0.107844     0.108878    Uiso  ? H
   H108       1.0     0.968891     0.131042     0.195690    Uiso  ? H
   H109       1.0     0.913587     0.914028     0.039971    Uiso  ? H
   H110       1.0     0.788078     0.829634     0.074166    Uiso  ? H
   H111       1.0     0.888037     0.894515     0.142266    Uiso  ? H
   H112       1.0     0.915519     0.216505     0.227119    Uiso  ? H
   H113       1.0     0.990025     0.231711     0.311339    Uiso  ? H
   H114       1.0     0.939152     0.308233     0.300813    Uiso  ? H
   H115       1.0     0.694402     0.374729     0.901450    Uiso  ? H
   H116       1.0     0.736679     0.501842     0.920653    Uiso  ? H
   H117       1.0     0.637252     0.409640     0.979013    Uiso  ? H
   H118       1.0     0.700441     0.431990     0.309135    Uiso  ? H
   H119       1.0     0.763741     0.386219     0.248431    Uiso  ? H
   H120       1.0     0.758791     0.489333     0.218813    Uiso  ? H
   H121       1.0     0.707597     0.264200     0.378127    Uiso  ? H
   H122       1.0     0.825126     0.356530     0.339461    Uiso  ? H
   H123       1.0     0.755213     0.388273     0.408917    Uiso  ? H
   H124       1.0     0.971619     0.494919     0.407318    Uiso  ? H
   H125       1.0     0.883934     0.515662     0.463453    Uiso  ? H
   H126       1.0    -0.006057     0.616922     0.424402    Uiso  ? H
   H127       1.0     0.908382     0.659709     0.723345    Uiso  ? H
   H128       1.0     0.915050     0.586802     0.796181    Uiso  ? H
   H129       1.0     0.796578     0.572414     0.775228    Uiso  ? H
   H130       1.0     0.661626     0.562202     0.120042    Uiso  ? H
   H131       1.0     0.708410     0.670534     0.065460    Uiso  ? H
   H132       1.0     0.721470     0.681120     0.169448    Uiso  ? H
   H133       1.0     0.955082     0.692090     0.977500    Uiso  ? H
   H134       1.0     0.927799     0.786500     0.004809    Uiso  ? H
   H135       1.0     0.833283     0.671756     0.963685    Uiso  ? H
   H136       1.0     0.616477     0.769364     0.428681    Uiso  ? H
   H137       1.0     0.528320     0.791405     0.481955    Uiso  ? H
   H138       1.0     0.550049     0.697189     0.511119    Uiso  ? H
   H139       1.0     0.826046     0.887823     0.940426    Uiso  ? H
   H140       1.0     0.788486     0.784305     0.873697    Uiso  ? H
   H141       1.0     0.727098     0.766589     0.967280    Uiso  ? H
   H142       1.0     0.753023     0.660980     0.689571    Uiso  ? H
   H143       1.0     0.711301     0.723933     0.754321    Uiso  ? H
   H144       1.0     0.834031     0.743638     0.764953    Uiso  ? H
