
#======================================================================
# CRYSTAL DATA
#----------------------------------------------------------------------
data_VESTA_phase_1

_chemical_name_common                  '333-RV-11                             '
_cell_length_a                         15.623860
_cell_length_b                         14.974923
_cell_length_c                         16.125572
_cell_angle_alpha                      91.106407
_cell_angle_beta                       85.750168
_cell_angle_gamma                      124.027145
_cell_volume                           3117.105584
_space_group_name_H-M_alt              'P 1'
_space_group_IT_number                 1

loop_
_space_group_symop_operation_xyz
   'x, y, z'

loop_
   _atom_site_label
   _atom_site_occupancy
   _atom_site_fract_x
   _atom_site_fract_y
   _atom_site_fract_z
   _atom_site_adp_type
   _atom_site_U_iso_or_equiv
   _atom_site_type_symbol
   Si1        1.0     0.111533     0.988861     0.110712    Uiso  ? Si
   Si2        1.0     0.023676     0.163752     0.238273    Uiso  ? Si
   Si3        1.0     0.129400     0.173521     0.006887    Uiso  ? Si
   Si4        1.0     0.005055     0.175070     0.582000    Uiso  ? Si
   Si5        1.0     0.206980     0.199748     0.329609    Uiso  ? Si
   Si6        1.0     0.988510     0.194487     0.902137    Uiso  ? Si
   Si7        1.0     0.163356     0.159466     0.668081    Uiso  ? Si
   Si8        1.0     0.177970     0.354143     0.117852    Uiso  ? Si
   Si9        1.0     0.177248     0.344478     0.452191    Uiso  ? Si
   Si10       1.0    -0.011855     0.487392     0.566188    Uiso  ? Si
   Si11       1.0     0.196869     0.519698     0.341817    Uiso  ? Si
   Si12       1.0     0.177500     0.347875     0.778243    Uiso  ? Si
   Si13       1.0     0.926420     0.461357     0.920121    Uiso  ? Si
   Si14       1.0     0.169530     0.508936     0.662427    Uiso  ? Si
   Si15       1.0     0.960916     0.821053     0.252531    Uiso  ? Si
   Si16       1.0     0.106768     0.827759     0.976644    Uiso  ? Si
   Si17       1.0     0.145718     0.663499     0.439487    Uiso  ? Si
   Si18       1.0     0.141247     0.807135     0.304272    Uiso  ? Si
   Si19       1.0     0.118257     0.626206     0.796096    Uiso  ? Si
   Si20       1.0     0.459413     0.024041     0.126593    Uiso  ? Si
   Si21       1.0     0.500787     0.167714     0.975790    Uiso  ? Si
   Si22       1.0     0.401972     0.003280     0.448453    Uiso  ? Si
   Si23       1.0     0.374927     0.240198     0.571175    Uiso  ? Si
   Si24       1.0     0.466291     0.187598     0.323766    Uiso  ? Si
   Si25       1.0     0.425143     0.980634     0.740107    Uiso  ? Si
   Si26       1.0     0.508697     0.214479     0.684424    Uiso  ? Si
   Si27       1.0     0.566065     0.387298     0.031826    Uiso  ? Si
   Si28       1.0     0.362193     0.519765     0.223782    Uiso  ? Si
   Si29       1.0     0.497640     0.505153     0.937049    Uiso  ? Si
   Si30       1.0     0.526439     0.391864     0.432172    Uiso  ? Si
   Si31       1.0     0.342997     0.510484     0.571102    Uiso  ? Si
   Si32       1.0     0.552944     0.545896     0.296045    Uiso  ? Si
   Si33       1.0     0.480026     0.501526     0.690000    Uiso  ? Si
   Si34       1.0     0.520987     0.657810     0.084456    Uiso  ? Si
   Si35       1.0     0.307386     0.797352     0.182736    Uiso  ? Si
   Si36       1.0     0.224283     0.836832     0.570662    Uiso  ? Si
   Si37       1.0     0.459129     0.878655     0.329901    Uiso  ? Si
   Si38       1.0     0.563743     0.736254     0.758964    Uiso  ? Si
   Si39       1.0     0.282423     0.827889     0.885372    Uiso  ? Si
   Si40       1.0     0.829139    -0.003874     0.145631    Uiso  ? Si
   Si41       1.0     0.826658     0.984714     0.496612    Uiso  ? Si
   Si42       1.0     0.613878     0.152090     0.541188    Uiso  ? Si
   Si43       1.0     0.861372     0.147212     0.364114    Uiso  ? Si
   Si44       1.0     0.613283     0.097266     0.848344    Uiso  ? Si
   Si45       1.0     0.675212     0.461284     0.188256    Uiso  ? Si
   Si46       1.0     0.832332     0.313171     0.454842    Uiso  ? Si
   Si47       1.0     0.795857     0.316129     0.787821    Uiso  ? Si
   Si48       1.0     0.860559     0.532981     0.699423    Uiso  ? Si
   Si49       1.0     0.855204     0.863002    -0.004351    Uiso  ? Si
   Si50       1.0     0.895253     0.836055     0.434044    Uiso  ? Si
   Si51       1.0     0.768625     0.793403     0.823333    Uiso  ? Si
   C1         1.0     0.232053     0.037301     0.159885    Uiso  ? C
   C2         1.0     0.192792     0.157724     0.911960    Uiso  ? C
   C3         1.0     0.173804     0.093204     0.406769    Uiso  ? C
   C4         1.0     0.931242     0.080439     0.830003    Uiso  ? C
   C5         1.0     0.149169     0.039226     0.713861    Uiso  ? C
   C6         1.0     0.970384     0.426416     0.010576    Uiso  ? C
   C7         1.0     0.053446     0.707854     0.046481    Uiso  ? C
   C8         1.0     0.034243     0.802677     0.882729    Uiso  ? C
   C9         1.0     0.585027     0.040906     0.102491    Uiso  ? C
   C10        1.0     0.396790     0.149339     0.916077    Uiso  ? C
   C11        1.0     0.442031     0.326270     0.096555    Uiso  ? C
   C12        1.0     0.657445     0.435956     0.457902    Uiso  ? C
   C13        1.0     0.464318     0.612233     0.511679    Uiso  ? C
   C14        1.0     0.555569     0.783453     0.031939    Uiso  ? C
   C15        1.0     0.255530     0.669892     0.127629    Uiso  ? C
   C16        1.0     0.480099     0.785128     0.382708    Uiso  ? C
   C17        1.0     0.586002     0.008227     0.306366    Uiso  ? C
   C18        1.0     0.539519     0.812000     0.686197    Uiso  ? C
   C19        1.0     0.387919     0.828578     0.929668    Uiso  ? C
   C20        1.0     0.819452     0.107187     0.109701    Uiso  ? C
   C21        1.0     0.722434     0.889106     0.217387    Uiso  ? C
   C22        1.0     0.657178     0.075165     0.591076    Uiso  ? C
   C23        1.0     0.689949     0.044975     0.876339    Uiso  ? C
   C24        1.0     0.813350     0.520346     0.202474    Uiso  ? C
   C25        1.0     0.865850     0.404752     0.364964    Uiso  ? C
   C26        1.0     0.878564     0.279654     0.732143    Uiso  ? C
   C27        1.0     0.769001     0.554594     0.652259    Uiso  ? C
   C28        1.0     0.824273     0.735357     0.043254    Uiso  ? C
   C29        1.0     0.758020     0.720341     0.432904    Uiso  ? C
   C30        1.0     0.972998     0.809016     0.497375    Uiso  ? C
   O1         1.0     0.100688     0.085485     0.080541    Uiso  ? O
   O2         1.0     0.114324     0.151074     0.265140    Uiso  ? O
   O3         1.0     0.022670     0.162782     0.985175    Uiso  ? O
   O4         1.0     0.059951     0.119288     0.618726    Uiso  ? O
   O5         1.0     0.071056     0.266367     0.173046    Uiso  ? O
   O6         1.0     0.205716     0.294109     0.045548    Uiso  ? O
   O7         1.0     0.070099     0.242658     0.496150    Uiso  ? O
   O8         1.0     0.221210     0.306031     0.375476    Uiso  ? O
   O9         1.0     0.153332     0.428931     0.415869    Uiso  ? O
   O10        1.0     0.090648     0.304536     0.857130    Uiso  ? O
   O11        1.0     0.175912     0.246264     0.737826    Uiso  ? O
   O12        1.0     0.072219     0.473013     0.607089    Uiso  ? O
   O13        1.0     0.146293     0.401240     0.708949    Uiso  ? O
   O14        1.0     0.010467     0.907266     0.174852    Uiso  ? O
   O15        1.0     0.107838     0.924228     0.026969    Uiso  ? O
   O16        1.0     0.038773     0.557434     0.479436    Uiso  ? O
   O17        1.0     0.212577     0.628699     0.382314    Uiso  ? O
   O18        1.0     0.033335     0.775634     0.267156    Uiso  ? O
   O19        1.0     0.111327     0.725041     0.382828    Uiso  ? O
   O20        1.0     0.017845     0.518441     0.842140    Uiso  ? O
   O21        1.0     0.182833     0.595373     0.731466    Uiso  ? O
   O22        1.0     0.450583     0.105095     0.066514    Uiso  ? O
   O23        1.0     0.264406     0.221052     0.600824    Uiso  ? O
   O24        1.0     0.392817     0.082592     0.387413    Uiso  ? O
   O25        1.0     0.437270     0.253746     0.653012    Uiso  ? O
   O26        1.0     0.429901     0.090295     0.721324    Uiso  ? O
   O27        1.0     0.583611     0.296619    -0.008651    Uiso  ? O
   O28        1.0     0.273197     0.413765     0.178481    Uiso  ? O
   O29        1.0     0.309527     0.551417     0.299849    Uiso  ? O
   O30        1.0     0.571313     0.462685     0.956102    Uiso  ? O
   O31        1.0     0.443293     0.350919     0.513905    Uiso  ? O
   O32        1.0     0.480619     0.293962     0.366867    Uiso  ? O
   O33        1.0     0.264386     0.404182     0.518936    Uiso  ? O
   O34        1.0     0.278169     0.563397     0.604599    Uiso  ? O
   O35        1.0     0.440758     0.491787     0.256970    Uiso  ? O
   O36        1.0     0.531553     0.492740     0.388775    Uiso  ? O
   O37        1.0     0.371135     0.468657     0.652166    Uiso  ? O
   O38        1.0     0.427991     0.622901     0.158783    Uiso  ? O
   O39        1.0     0.476409     0.558679     0.018883    Uiso  ? O
   O40        1.0     0.361873     0.898394     0.114625    Uiso  ? O
   O41        1.0     0.208340     0.791343     0.231399    Uiso  ? O
   O42        1.0     0.211869     0.737295     0.515330    Uiso  ? O
   O43        1.0     0.308171     0.953001     0.522010    Uiso  ? O
   O44        1.0     0.393951     0.822236     0.247309    Uiso  ? O
   O45        1.0     0.387968     0.903531     0.394951    Uiso  ? O
   O46        1.0     0.546043     0.628107     0.715183    Uiso  ? O
   O47        1.0     0.193358     0.701302     0.867541    Uiso  ? O
   O48        1.0     0.318695     0.897358     0.796732    Uiso  ? O
   O49        1.0     0.229328     0.874045     0.947640    Uiso  ? O
   O50        1.0     0.932908     0.053115     0.199253    Uiso  ? O
   O51        1.0     0.885972     0.080745     0.562933    Uiso  ? O
   O52        1.0     0.513014     0.070873     0.489183    Uiso  ? O
   O53        1.0     0.584604     0.218128     0.606922    Uiso  ? O
   O54        1.0     0.976693     0.191722     0.321594    Uiso  ? O
   O55        1.0     0.808781     0.030154     0.412282    Uiso  ? O
   O56        1.0     0.523220     0.006924     0.790675    Uiso  ? O
   O57        1.0     0.561637     0.116885     0.932159    Uiso  ? O
   O58        1.0     0.664077     0.465552     0.088101    Uiso  ? O
   O59        1.0     0.631184     0.526497     0.238440    Uiso  ? O
   O60        1.0     0.706193     0.242657     0.475130    Uiso  ? O
   O61        1.0     0.869600     0.232448     0.432363    Uiso  ? O
   O62        1.0     0.887076     0.372092     0.540855    Uiso  ? O
   O63        1.0     0.676721     0.209056     0.792307    Uiso  ? O
   O64        1.0     0.828629     0.349754     0.883679    Uiso  ? O
   O65        1.0     0.952019     0.547040     0.630910    Uiso  ? O
   O66        1.0     0.794625     0.411013     0.740846    Uiso  ? O
   O67        1.0     0.837832     0.934883     0.063058    Uiso  ? O
   O68        1.0     0.948821     0.874120     0.337958    Uiso  ? O
   O69        1.0     0.898819     0.939818     0.474266    Uiso  ? O
   O70        1.0     0.685548     0.810554     0.782283    Uiso  ? O
   O71        1.0     0.775847     0.830475     0.920531    Uiso  ? O
   H1         1.0    -0.000959     0.244574     0.643444    Uiso  ? H
   H2         1.0     0.304746     0.239362     0.278186    Uiso  ? H
   H3         1.0     0.914400     0.222262     0.931992    Uiso  ? H
   H4         1.0     0.163431     0.433255     0.080094    Uiso  ? H
   H5         1.0     0.121000     0.479448     0.277912    Uiso  ? H
   H6         1.0     0.278403     0.427390     0.810285    Uiso  ? H
   H7         1.0     0.892003     0.534292     0.941277    Uiso  ? H
   H8         1.0     0.857802     0.729374     0.232410    Uiso  ? H
   H9         1.0     0.199396     0.918548     0.333526    Uiso  ? H
   H10        1.0     0.087448     0.685155     0.748096    Uiso  ? H
   H11        1.0     0.448058     0.051353     0.213943    Uiso  ? H
   H12        1.0     0.359011     0.148135     0.523538    Uiso  ? H
   H13        1.0     0.412040     0.170851     0.248291    Uiso  ? H
   H14        1.0     0.569108     0.204076     0.307342    Uiso  ? H
   H15        1.0     0.430553     0.932215     0.661318    Uiso  ? H
   H16        1.0     0.569488     0.288664     0.749339    Uiso  ? H
   H17        1.0     0.394741     0.413725     0.914179    Uiso  ? H
   H18        1.0     0.554607     0.587845     0.869644    Uiso  ? H
   H19        1.0     0.601413     0.662795     0.302733    Uiso  ? H
   H20        1.0     0.548010     0.491679     0.627069    Uiso  ? H
   H21        1.0     0.451131     0.429979     0.763901    Uiso  ? H
   H22        1.0     0.608708     0.667598     0.124113    Uiso  ? H
   H23        1.0     0.260734     0.830620     0.650643    Uiso  ? H
   H24        1.0     0.124609     0.827373     0.583603    Uiso  ? H
   H25        1.0     0.494770     0.705258     0.837104    Uiso  ? H
   H26        1.0     0.723520     0.899050     0.534241    Uiso  ? H
   H27        1.0     0.794282     0.134210     0.299016    Uiso  ? H
   H28        1.0     0.609350     0.346534     0.217904    Uiso  ? H
   H29        1.0     0.913943     0.612901     0.764654    Uiso  ? H
   H30        1.0     0.961802     0.931656     0.955575    Uiso  ? H
   H31        1.0     0.870704     0.861946     0.775342    Uiso  ? H
   H32        1.0     0.733809     0.678400     0.820561    Uiso  ? H
   H33        1.0     0.299526     0.096992     0.119605    Uiso  ? H
   H34        1.0     0.239443     0.969390     0.168555    Uiso  ? H
   H35        1.0     0.235253     0.073399     0.220178    Uiso  ? H
   H36        1.0     0.149966     0.148302     0.858163    Uiso  ? H
   H37        1.0     0.194527     0.085943     0.917082    Uiso  ? H
   H38        1.0     0.272061     0.228357     0.898417    Uiso  ? H
   H39        1.0     0.239618     0.116269     0.443008    Uiso  ? H
   H40        1.0     0.151904     0.018644     0.374971    Uiso  ? H
   H41        1.0     0.108048     0.076293     0.449556    Uiso  ? H
   H42        1.0     0.981059     0.050678     0.818238    Uiso  ? H
   H43        1.0     0.918319     0.102261     0.769808    Uiso  ? H
   H44        1.0     0.856485     0.013856     0.858407    Uiso  ? H
   H45        1.0     0.216866     0.059873     0.746756    Uiso  ? H
   H46        1.0     0.140530    -0.015183     0.663413    Uiso  ? H
   H47        1.0     0.079652    -0.005904     0.757033    Uiso  ? H
   H48        1.0     0.020013     0.398684     0.989348    Uiso  ? H
   H49        1.0     0.902795     0.360618     0.047801    Uiso  ? H
   H50        1.0     0.014089     0.494784     0.051339    Uiso  ? H
   H51        1.0     0.076194     0.655737     0.019126    Uiso  ? H
   H52        1.0     0.968568     0.660076     0.054216    Uiso  ? H
   H53        1.0     0.083667     0.730845     0.108226    Uiso  ? H
   H54        1.0     0.047621     0.757348     0.835406    Uiso  ? H
   H55        1.0     0.058560     0.880012     0.853740    Uiso  ? H
   H56        1.0     0.950381     0.757044     0.898795    Uiso  ? H
   H57        1.0     0.592109     0.020372     0.037949    Uiso  ? H
   H58        1.0     0.594635     0.990329     0.143611    Uiso  ? H
   H59        1.0     0.648592     0.125327     0.110162    Uiso  ? H
   H60        1.0     0.344904     0.066435     0.895975    Uiso  ? H
   H61        1.0     0.426876     0.204880     0.861997    Uiso  ? H
   H62        1.0     0.350268     0.167720     0.957700    Uiso  ? H
   H63        1.0     0.431772     0.265528     0.140715    Uiso  ? H
   H64        1.0     0.374616     0.287919     0.059167    Uiso  ? H
   H65        1.0     0.440102     0.387966     0.132818    Uiso  ? H
   H66        1.0     0.691823     0.508627     0.495076    Uiso  ? H
   H67        1.0     0.707316     0.455341     0.400140    Uiso  ? H
   H68        1.0     0.657226     0.373263     0.492137    Uiso  ? H
   H69        1.0     0.452966     0.614834     0.445905    Uiso  ? H
   H70        1.0     0.522031     0.592770     0.515030    Uiso  ? H
   H71        1.0     0.495658     0.692595     0.536752    Uiso  ? H
   H72        1.0     0.562900     0.842847     0.076868    Uiso  ? H
   H73        1.0     0.495379     0.766164     0.990834    Uiso  ? H
   H74        1.0     0.629204     0.818962     0.993872    Uiso  ? H
   H75        1.0     0.316819     0.661397     0.100365    Uiso  ? H
   H76        1.0     0.209132     0.666200     0.078083    Uiso  ? H
   H77        1.0     0.204093     0.600486     0.170067    Uiso  ? H
   H78        1.0     0.534100     0.827534     0.431338    Uiso  ? H
   H79        1.0     0.513238     0.752856     0.339259    Uiso  ? H
   H80        1.0     0.406702     0.717962     0.412017    Uiso  ? H
   H81        1.0     0.581852     0.071530     0.278162    Uiso  ? H
   H82        1.0     0.638885    -0.003236     0.266669    Uiso  ? H
   H83        1.0     0.620947     0.038015     0.365956    Uiso  ? H
   H84        1.0     0.458619     0.763209     0.669678    Uiso  ? H
   H85        1.0     0.590954     0.835070     0.629017    Uiso  ? H
   H86        1.0     0.553775     0.885717     0.714922    Uiso  ? H
   H87        1.0     0.425427     0.804961     0.882295    Uiso  ? H
   H88        1.0     0.354296     0.769112     0.981257    Uiso  ? H
   H89        1.0     0.446344     0.906888     0.953779    Uiso  ? H
   H90        1.0     0.791357     0.136662     0.160397    Uiso  ? H
   H91        1.0     0.768688     0.083227     0.058767    Uiso  ? H
   H92        1.0     0.897554     0.174116     0.087189    Uiso  ? H
   H93        1.0     0.733238     0.822753     0.221094    Uiso  ? H
   H94        1.0     0.645117     0.855240     0.195948    Uiso  ? H
   H95        1.0     0.724423     0.918392     0.280625    Uiso  ? H
   H96        1.0     0.742006     0.121504     0.589525    Uiso  ? H
   H97        1.0     0.630515     0.000294     0.557729    Uiso  ? H
   H98        1.0     0.626839     0.053246     0.656150    Uiso  ? H
   H99        1.0     0.719507     0.024404     0.820466    Uiso  ? H
   H100       1.0     0.641702     0.970843     0.914928    Uiso  ? H
   H101       1.0     0.755794     0.104063     0.911209    Uiso  ? H
   H102       1.0     0.862816     0.595053     0.165139    Uiso  ? H
   H103       1.0     0.832671     0.463109     0.180651    Uiso  ? H
   H104       1.0     0.832736     0.538503     0.267286    Uiso  ? H
   H105       1.0     0.866000     0.475907     0.382681    Uiso  ? H
   H106       1.0     0.808382     0.360420     0.318959    Uiso  ? H
   H107       1.0     0.942715     0.432855     0.335273    Uiso  ? H
   H108       1.0     0.865400     0.269255     0.665831    Uiso  ? H
   H109       1.0     0.858901     0.202492     0.757951    Uiso  ? H
   H110       1.0     0.961021     0.339271     0.738562    Uiso  ? H
   H111       1.0     0.714107     0.484087     0.617372    Uiso  ? H
   H112       1.0     0.809142     0.626240     0.610640    Uiso  ? H
   H113       1.0     0.724653     0.566381     0.702270    Uiso  ? H
   H114       1.0     0.812175     0.676106    -0.003861    Uiso  ? H
   H115       1.0     0.752522     0.698225     0.084094    Uiso  ? H
   H116       1.0     0.886298     0.750196     0.081007    Uiso  ? H
   H117       1.0     0.722583     0.691058     0.496445    Uiso  ? H
   H118       1.0     0.751399     0.652804     0.398793    Uiso  ? H
   H119       1.0     0.712028     0.743311     0.402693    Uiso  ? H
   H120       1.0     0.969657     0.736278     0.478550    Uiso  ? H
   H121       1.0     0.945241     0.799145     0.563420    Uiso  ? H
   H122       1.0     0.054566     0.877323     0.492013    Uiso  ? H
