LAMMPS (2 Aug 2023 - Update 2)
# use omp, if possible
#package omp 1

units           real
boundary        p p p

# system contains only atoms
atom_style      atomic

pair_style      lj/cut     12.00000

# use LB combination rules
pair_modify    mix arithmetic

pair_modify    shift no
pair_modify    tail yes

# this is where we read the data file
read_data data.system
Reading data file ...
  triclinic box = (0.19187126 0.073908613 0.11703557) to (26.726417 26.84438 26.801253) with tilt (0.11380037 0.021439914 -0.20206649)
  reading atoms ...
  500 atoms
  reading velocities ...
  500 velocities
#read_restart restart.bin

# include force field parameters file
#include ff.system

# cutoff list width, in Ang. (from rc_lj)
neighbor            1.200000 bin

# list update, check every timestep after 5 steps
neigh_modify    every 1 delay 5 check yes

# groups definition
group Argon.dat type      1
500 atoms in group Argon.dat

# compute thermo info 'a la Newton' to compare
# with td.out values (same units)
variable nt_eb        equal ebond/500*4.184
variable nt_epl       equal eangle/500*4.184
variable nt_etor      equal (edihed+eimp)/500*4.184
variable nt_LJ        equal (evdwl-etail)/500*4.184
variable nt_ES        equal (ecoul+elong)/500*4.184
variable nt_Ep        equal pe/500*4.184
variable nt_E         equal etotal/500*4.184
variable nt_Pat       equal press*1.01325
variable nt_rho       equal density*1000.
variable nt_V         equal vol
variable nt_T         equal temp

variable initstep   equal  step
variable nstep      equal  10000 # 10000000
variable perthermo  equal  100
variable pertraj    equal  100000
variable perpdb     equal  v_nstep+1
# nstep must be a multiple of nevery
variable nevery     equal  10
variable nrepeat    equal  v_nstep/v_nevery
variable nfreq      equal  v_nstep+v_initstep
variable finalstep  equal  v_initstep+v_nstep

# print thermo info variable values
thermo_style custom step v_nt_eb v_nt_epl v_nt_etor  v_nt_LJ v_nt_ES v_nt_Ep v_nt_E  v_nt_Pat v_nt_rho v_nt_V  v_nt_T    pe temp press cella cellb cellc cellalpha cellbeta cellgamma pxx pyy pzz pxy pxz pyz
thermo 100

## write a restart file
restart 10000 restart.bin

timestep 1.0

# NVE run
#fix 1 all nve

# NPT triclinic
 fix 1 all npt  temp  60.00  60.00 100  tri 0.986923  0.986923  1000.0 tchain 10  pchain 10  mtk yes tloop 4 ploop 4
 run 10000
Generated 0 of 0 mixed pair_coeff terms from arithmetic mixing rule
Step        v_nt_eb        v_nt_epl      v_nt_etor       v_nt_LJ        v_nt_ES        v_nt_Ep         v_nt_E        v_nt_Pat       v_nt_rho        v_nt_V         v_nt_T         PotEng          Temp          Press          Cella          Cellb          Cellc        CellAlpha       CellBeta      CellGamma         Pxx            Pyy            Pzz            Pxy            Pxz            Pyz
0   0              0              0             -7.8526782      0             -8.0511692     -7.2724121      89.621973      1749.8143      18954.928      62.567022     -962.13781      62.567022      88.45001       26.534546      26.770713      26.684991      90.433665      89.953966      89.756439      67.917713      82.814484      114.61783      11.878556     -97.183313      12.815046
Averages over the last 51 of 101 rows, steps 5000 to 10000:
v_nt_eb v_nt_epl v_nt_etor v_nt_LJ v_nt_ES v_nt_Ep v_nt_E v_nt_Pat v_nt_rho v_nt_V v_nt_T PotEng Temp Press Cella Cellb Cellc CellAlpha CellBeta CellGamma Pxx Pyy Pzz Pxy Pxz Pyz
0 0 0 -7.86503 0 -8.06317 -7.31815 -1.89686 1746.8 18988 59.8567 -963.572 59.8567 -1.87205 26.4786 26.7684 26.7916 90.4397 90.0584 89.9418 -3.87241 1.90953 -3.65327 -1.30457 -1.61433 -1.78155
Loop time of 33.2741 on 1 procs for 10000 steps with 500 atoms
