
#======================================================================
# CRYSTAL DATA
#----------------------------------------------------------------------
data_VESTA_phase_1

_chemical_name_common                  '333U-50C-14                           '
_cell_length_a                         16.859739
_cell_length_b                         15.405855
_cell_length_c                         18.647038
_cell_angle_alpha                      90.293465
_cell_angle_beta                       88.589851
_cell_angle_gamma                      125.066269
_cell_volume                           3962.789083
_space_group_name_H-M_alt              'P 1'
_space_group_IT_number                 1

loop_
_space_group_symop_operation_xyz
   'x, y, z'

loop_
   _atom_site_label
   _atom_site_occupancy
   _atom_site_fract_x
   _atom_site_fract_y
   _atom_site_fract_z
   _atom_site_adp_type
   _atom_site_U_iso_or_equiv
   _atom_site_type_symbol
   Si1        1.0     0.153177     0.067100     0.159687    Uiso  ? Si
   Si2        1.0     0.007304     0.189742     0.234930    Uiso  ? Si
   Si3        1.0     0.173599     0.960009     0.486766    Uiso  ? Si
   Si4        1.0     0.106350     0.187906     0.361819    Uiso  ? Si
   Si5        1.0     0.190867    -0.002394     0.784646    Uiso  ? Si
   Si6        1.0     0.974900     0.164484     0.893936    Uiso  ? Si
   Si7        1.0     0.174153     0.102256     0.641685    Uiso  ? Si
   Si8        1.0     0.170785     0.356235     0.136177    Uiso  ? Si
   Si9        1.0     0.046482     0.536716     0.234019    Uiso  ? Si
   Si10       1.0     0.216180     0.514707     0.024866    Uiso  ? Si
   Si11       1.0     0.104635     0.345573     0.448345    Uiso  ? Si
   Si12       1.0     0.938286     0.545152     0.550940    Uiso  ? Si
   Si13       1.0     0.175429     0.544598     0.363426    Uiso  ? Si
   Si14       1.0     0.170847     0.324989     0.836908    Uiso  ? Si
   Si15       1.0     0.152542     0.435025     0.702271    Uiso  ? Si
   Si16       1.0     0.980908     0.861354     0.225868    Uiso  ? Si
   Si17       1.0     0.147003     0.956109     0.015260    Uiso  ? Si
   Si18       1.0     0.156173     0.666668     0.492419    Uiso  ? Si
   Si19       1.0     0.207076     0.831866     0.379272    Uiso  ? Si
   Si20       1.0     0.007967     0.851161     0.890979    Uiso  ? Si
   Si21       1.0     0.185613     0.792231     0.757117    Uiso  ? Si
   Si22       1.0     0.537298     0.954090     0.132241    Uiso  ? Si
   Si23       1.0     0.487907     0.126932     0.941197    Uiso  ? Si
   Si24       1.0     0.542184     0.057887     0.407468    Uiso  ? Si
   Si25       1.0     0.352358     0.157859     0.554421    Uiso  ? Si
   Si26       1.0     0.494313     0.009511     0.735683    Uiso  ? Si
   Si27       1.0     0.365661     0.193853     0.873786    Uiso  ? Si
   Si28       1.0     0.503340     0.202441     0.669639    Uiso  ? Si
   Si29       1.0     0.506382     0.263772     0.081641    Uiso  ? Si
   Si30       1.0     0.343686     0.481225     0.232127    Uiso  ? Si
   Si31       1.0     0.481475     0.433033     0.018412    Uiso  ? Si
   Si32       1.0     0.489648     0.348574     0.450684    Uiso  ? Si
   Si33       1.0     0.258939     0.477071     0.556234    Uiso  ? Si
   Si34       1.0     0.491203     0.484554     0.329003    Uiso  ? Si
   Si35       1.0     0.513766     0.359884     0.778107    Uiso  ? Si
   Si36       1.0     0.348085     0.470289     0.944833    Uiso  ? Si
   Si37       1.0     0.505638     0.521272     0.694268    Uiso  ? Si
   Si38       1.0     0.506512     0.617288     0.115876    Uiso  ? Si
   Si39       1.0     0.436437     0.777521     0.252414    Uiso  ? Si
   Si40       1.0     0.532343     0.801059     0.012965    Uiso  ? Si
   Si41       1.0     0.413805     0.668189     0.459690    Uiso  ? Si
   Si42       1.0     0.291180     0.785957     0.613667    Uiso  ? Si
   Si43       1.0     0.510500     0.722471     0.747233    Uiso  ? Si
   Si44       1.0     0.505799     0.866534     0.630508    Uiso  ? Si
   Si45       1.0     0.804026     0.940887     0.044724    Uiso  ? Si
   Si46       1.0     0.695545     0.172282     0.204561    Uiso  ? Si
   Si47       1.0     0.770620     0.095546     0.958666    Uiso  ? Si
   Si48       1.0     0.789434     0.978184     0.411999    Uiso  ? Si
   Si49       1.0     0.715605     0.216327     0.491315    Uiso  ? Si
   Si50       1.0     0.827822     0.160614     0.305529    Uiso  ? Si
   Si51       1.0     0.839681     0.002367     0.785981    Uiso  ? Si
   Si52       1.0     0.649725     0.120786     0.859039    Uiso  ? Si
   Si53       1.0     0.785704     0.156217     0.621787    Uiso  ? Si
   Si54       1.0     0.899316     0.362774     0.127723    Uiso  ? Si
   Si55       1.0     0.888499     0.496913     0.003058    Uiso  ? Si
   Si56       1.0     0.885931     0.359388     0.392342    Uiso  ? Si
   Si57       1.0     0.626049     0.535786     0.555736    Uiso  ? Si
   Si58       1.0     0.877166     0.525162     0.317735    Uiso  ? Si
   Si59       1.0     0.836395     0.282979     0.770909    Uiso  ? Si
   Si60       1.0     0.817224     0.609515     0.641756    Uiso  ? Si
   Si61       1.0     0.688960     0.805495     0.180424    Uiso  ? Si
   Si62       1.0     0.805194     0.790011     0.930579    Uiso  ? Si
   Si63       1.0     0.750850     0.666025     0.435756    Uiso  ? Si
   Si64       1.0     0.614285     0.832559     0.516797    Uiso  ? Si
   Si65       1.0     0.804336     0.817484     0.311050    Uiso  ? Si
   Si66       1.0     0.663779     0.825589     0.874705    Uiso  ? Si
   H1         1.0     0.227055     0.058980     0.194381    Uiso  ? H
   H2         1.0     0.178780     0.176251     0.160723    Uiso  ? H
   H3         1.0     0.022285     0.076201     0.371912    Uiso  ? H
   H4         1.0     0.114487     0.013201     0.593333    Uiso  ? H
   H5         1.0     0.187176     0.306970     0.074631    Uiso  ? H
   H6         1.0     0.137525     0.439084    -0.023595    Uiso  ? H
   H7         1.0    -0.000328     0.296506     0.451903    Uiso  ? H
   H8         1.0     0.064192     0.341411     0.670493    Uiso  ? H
   H9         1.0     0.227139     0.024287     0.963125    Uiso  ? H
   H10        1.0     0.120103     0.740714     0.345679    Uiso  ? H
   H11        1.0     0.996413     0.749096     0.882264    Uiso  ? H
   H12        1.0     0.212496     0.770113     0.826837    Uiso  ? H
   H13        1.0     0.532173    -0.009312     0.346010    Uiso  ? H
   H14        1.0     0.525244     0.137690     0.382001    Uiso  ? H
   H15        1.0     0.406218     0.915609     0.768689    Uiso  ? H
   H16        1.0     0.323934     0.199871     0.942184    Uiso  ? H
   H17        1.0     0.322269     0.540998     0.280553    Uiso  ? H
   H18        1.0     0.278004     0.628053     0.346465    Uiso  ? H
   H19        1.0     0.537226     0.314143     0.402652    Uiso  ? H
   H20        1.0     0.596482     0.371345     0.813436    Uiso  ? H
   H21        1.0     0.485967     0.725464     0.268621    Uiso  ? H
   H22        1.0     0.411921     0.805171     0.321914    Uiso  ? H
   H23        1.0     0.444778     0.774171     0.975757    Uiso  ? H
   H24        1.0     0.527124     0.593340     0.351554    Uiso  ? H
   H25        1.0     0.407636     0.757456     0.440469    Uiso  ? H
   H26        1.0     0.401076     0.602469     0.396760    Uiso  ? H
   H27        1.0     0.313162     0.883923     0.580378    Uiso  ? H
   H28        1.0     0.001092     0.092726     0.221048    Uiso  ? H
   H29        1.0     0.813175     0.058328     0.738635    Uiso  ? H
   H30        1.0     0.883701     0.205268     0.588292    Uiso  ? H
   H31        1.0     0.848207     0.924893     0.745069    Uiso  ? H
   H32        1.0     0.737996     0.042265     0.637672    Uiso  ? H
   H33        1.0     0.985087     0.445118     0.410485    Uiso  ? H
   H34        1.0     0.870011     0.487247     0.492592    Uiso  ? H
   H35        1.0     0.915273     0.276853     0.797251    Uiso  ? H
   H36        1.0     0.870558     0.395078     0.760857    Uiso  ? H
   H37        1.0     0.780778     0.696946     0.973024    Uiso  ? H
   H38        1.0     0.734515     0.563301     0.416829    Uiso  ? H
   H39        1.0     0.046384     0.775194     0.520342    Uiso  ? H
   H40        1.0     0.059169     0.861205     0.589155    Uiso  ? H
   H41        1.0     0.144644     0.829723     0.579090    Uiso  ? H
   H42        1.0     0.044998    -0.008174     0.491558    Uiso  ? H
   H43        1.0     0.099897     0.014574     0.405314    Uiso  ? H
   H44        1.0     0.159290     0.112253     0.473154    Uiso  ? H
   H45        1.0     0.248512     0.250826     0.281389    Uiso  ? H
   H46        1.0     0.202250     0.122468     0.317293    Uiso  ? H
   H47        1.0     0.273687     0.236832     0.370596    Uiso  ? H
   H48        1.0     0.089995     0.130257     0.932144    Uiso  ? H
   H49        1.0     0.981530     0.044054     0.980357    Uiso  ? H
   H50        1.0     0.059714     0.180704     0.004494    Uiso  ? H
   H51        1.0     0.064106     0.640979     0.131645    Uiso  ? H
   H52        1.0     0.164796     0.632392     0.134507    Uiso  ? H
   H53        1.0     0.159526     0.722024     0.191768    Uiso  ? H
   H54        1.0     0.260598     0.669375     0.955899    Uiso  ? H
   H55        1.0     0.300633     0.709314     0.044990    Uiso  ? H
   H56        1.0     0.176486     0.647233     0.024979    Uiso  ? H
   H57        1.0     0.107948     0.193494     0.593024    Uiso  ? H
   H58        1.0     0.165241     0.254288     0.675157    Uiso  ? H
   H59        1.0     0.049466     0.130654     0.676193    Uiso  ? H
   H60        1.0     0.238647     0.238784     0.777858    Uiso  ? H
   H61        1.0     0.113038     0.143043     0.797560    Uiso  ? H
   H62        1.0     0.199424     0.191763     0.866427    Uiso  ? H
   H63        1.0     0.972901     0.416019     0.583350    Uiso  ? H
   H64        1.0     0.867123     0.389568     0.628777    Uiso  ? H
   H65        1.0     0.983025     0.492110     0.659512    Uiso  ? H
   H66        1.0     0.121461     0.573031     0.701551    Uiso  ? H
   H67        1.0     0.186525     0.583690     0.778457    Uiso  ? H
   H68        1.0     0.060294     0.481933     0.775203    Uiso  ? H
   H69        1.0     0.956263     0.796606     0.102825    Uiso  ? H
   H70        1.0     0.865445     0.815080     0.128346    Uiso  ? H
   H71        1.0     0.857296     0.701590     0.158829    Uiso  ? H
   H72        1.0     0.166988     0.809450     0.015244    Uiso  ? H
   H73        1.0     0.104541     0.805043     0.094649    Uiso  ? H
   H74        1.0     0.232033     0.898932     0.085915    Uiso  ? H
   H75        1.0     0.031977     0.744304     0.261859    Uiso  ? H
   H76        1.0     0.100283     0.872131     0.301691    Uiso  ? H
   H77        1.0     0.123277     0.856447     0.210910    Uiso  ? H
   H78        1.0     0.024836     0.619636     0.752983    Uiso  ? H
   H79        1.0     0.040142     0.707286     0.683439    Uiso  ? H
   H80        1.0     0.014208     0.725189     0.772989    Uiso  ? H
   H81        1.0     0.397181     0.956641     0.160727    Uiso  ? H
   H82        1.0     0.375907     0.880953     0.082350    Uiso  ? H
   H83        1.0     0.449630     0.021945     0.077296    Uiso  ? H
   H84        1.0     0.375047     0.957386     0.885538    Uiso  ? H
   H85        1.0     0.330485     0.956121     0.972875    Uiso  ? H
   H86        1.0     0.424686     0.937257     0.961294    Uiso  ? H
   H87        1.0     0.453604     0.130668     0.180405    Uiso  ? H
   H88        1.0     0.355317     0.119818     0.138113    Uiso  ? H
   H89        1.0     0.423982     0.222166     0.200722    Uiso  ? H
   H90        1.0     0.666308     0.429727     0.058359    Uiso  ? H
   H91        1.0     0.681397     0.342550     0.107755    Uiso  ? H
   H92        1.0     0.636938     0.410524     0.151021    Uiso  ? H
   H93        1.0     0.651281     0.527799     0.978955    Uiso  ? H
   H94        1.0     0.583667     0.525532     0.907373    Uiso  ? H
   H95        1.0     0.578419     0.410039     0.928950    Uiso  ? H
   H96        1.0     0.607685     0.527503     0.230474    Uiso  ? H
   H97        1.0     0.550475     0.393987     0.261788    Uiso  ? H
   H98        1.0     0.644413     0.502271     0.311613    Uiso  ? H
   H99        1.0     0.319967     0.401323     0.478352    Uiso  ? H
   H100       1.0     0.284516     0.332336     0.561322    Uiso  ? H
   H101       1.0     0.396160     0.459915     0.552531    Uiso  ? H
   H102       1.0     0.355171     0.402331     0.756347    Uiso  ? H
   H103       1.0     0.358365     0.344951     0.674298    Uiso  ? H
   H104       1.0     0.331803     0.441979     0.675659    Uiso  ? H
   H105       1.0     0.354119     0.676148     0.145619    Uiso  ? H
   H106       1.0     0.307808     0.748449     0.177060    Uiso  ? H
   H107       1.0     0.268461     0.625665     0.217850    Uiso  ? H
   H108       1.0     0.298743     0.952615     0.279899    Uiso  ? H
   H109       1.0     0.304251     0.840558     0.275047    Uiso  ? H
   H110       1.0     0.380334     0.945689     0.333995    Uiso  ? H
   H111       1.0     0.440360     0.903438     0.488610    Uiso  ? H
   H112       1.0     0.385583     0.971874     0.473602    Uiso  ? H
   H113       1.0     0.483015     0.025109     0.532658    Uiso  ? H
   H114       1.0     0.446588     0.640943     0.884217    Uiso  ? H
   H115       1.0     0.474050     0.553278     0.847769    Uiso  ? H
   H116       1.0     0.519064     0.613731     0.931886    Uiso  ? H
   H117       1.0     0.343817     0.584678     0.797189    Uiso  ? H
   H118       1.0     0.345019     0.659702     0.724934    Uiso  ? H
   H119       1.0     0.378420     0.716850     0.811370    Uiso  ? H
   H120       1.0     0.951602     0.113154     0.081797    Uiso  ? H
   H121       1.0     0.949003     0.003410     0.114312    Uiso  ? H
   H122       1.0     0.871288     0.034598     0.153141    Uiso  ? H
   H123       1.0     0.552847     0.148202     0.265419    Uiso  ? H
   H124       1.0     0.613083     0.263374     0.209560    Uiso  ? H
   H125       1.0     0.662914     0.265066     0.292754    Uiso  ? H
   H126       1.0     0.949822     0.093857     0.466596    Uiso  ? H
   H127       1.0     0.880758     0.969546     0.511735    Uiso  ? H
   H128       1.0     0.854965     0.064490     0.527213    Uiso  ? H
   H129       1.0     0.589804     0.250072     0.514684    Uiso  ? H
   H130       1.0     0.665700     0.318918     0.438315    Uiso  ? H
   H131       1.0     0.708036     0.367711     0.524998    Uiso  ? H
   H132       1.0     0.664571     0.361120     0.635657    Uiso  ? H
   H133       1.0     0.665906     0.245599     0.634813    Uiso  ? H
   H134       1.0     0.661175     0.300024     0.717451    Uiso  ? H
   H135       1.0     0.780968     0.256913    -0.010664    Uiso  ? H
   H136       1.0     0.775983     0.187557     0.067432    Uiso  ? H
   H137       1.0     0.670776     0.140456     0.019352    Uiso  ? H
   H138       1.0     0.931590     0.309075     0.011335    Uiso  ? H
   H139       1.0     0.930409     0.232744     0.083174    Uiso  ? H
   H140       1.0     0.029780     0.365717     0.070135    Uiso  ? H
   H141       1.0     0.982657     0.550044     0.889947    Uiso  ? H
   H142       1.0     0.001481     0.464130     0.937523    Uiso  ? H
   H143       1.0     0.063762     0.599655     0.961854    Uiso  ? H
   H144       1.0     0.900665     0.662164     0.979978    Uiso  ? H
   H145       1.0     0.963129     0.672931     0.058402    Uiso  ? H
   H146       1.0     0.834864     0.599867     0.061089    Uiso  ? H
   H147       1.0     0.711123     0.357416    -0.019915    Uiso  ? H
   H148       1.0     0.785710     0.365126     0.908697    Uiso  ? H
   H149       1.0     0.766447     0.465657     0.918568    Uiso  ? H
   H150       1.0     0.813931     0.488460     0.196121    Uiso  ? H
   H151       1.0     0.794470     0.578208     0.239407    Uiso  ? H
   H152       1.0     0.718446     0.441130     0.260774    Uiso  ? H
   H153       1.0     0.791874     0.467645     0.725694    Uiso  ? H
   H154       1.0     0.726871     0.521477     0.753975    Uiso  ? H
   H155       1.0     0.853645     0.594552     0.765443    Uiso  ? H
   H156       1.0     0.925395     0.789769     0.689970    Uiso  ? H
   H157       1.0     0.802236     0.743375     0.699090    Uiso  ? H
   H158       1.0     0.864667     0.794670     0.615275    Uiso  ? H
   H159       1.0     0.644994     0.893321     0.270617    Uiso  ? H
   H160       1.0     0.679834     0.960257     0.186267    Uiso  ? H
   H161       1.0     0.767244     0.968449     0.240718    Uiso  ? H
   H162       1.0     0.913859     0.695953     0.359730    Uiso  ? H
   H163       1.0     0.988548     0.663580     0.398672    Uiso  ? H
   H164       1.0     0.868556     0.602730     0.432370    Uiso  ? H
   H165       1.0     0.924884     0.816684     0.430160    Uiso  ? H
   H166       1.0     0.897079     0.740825     0.509912    Uiso  ? H
   H167       1.0     0.861083     0.828290     0.502232    Uiso  ? H
   H168       1.0     0.739777     0.807991     0.553859    Uiso  ? H
   H169       1.0     0.644984     0.756438     0.618965    Uiso  ? H
   H170       1.0     0.732939     0.895834     0.612115    Uiso  ? H
   C1         1.0     0.099189     0.846433     0.549698    Uiso  ? C
   C2         1.0     0.114537     0.026707     0.462678    Uiso  ? C
   C3         1.0     0.217899     0.200609     0.329676    Uiso  ? C
   C4         1.0     0.029229     0.125044     0.959739    Uiso  ? C
   C5         1.0     0.116730     0.643611     0.166939    Uiso  ? C
   C6         1.0     0.240673     0.647766     0.012982    Uiso  ? C
   C7         1.0     0.120311     0.178282     0.647836    Uiso  ? C
   C8         1.0     0.179941     0.213517     0.817376    Uiso  ? C
   C9         1.0     0.941427     0.452905     0.611438    Uiso  ? C
   C10        1.0     0.128105     0.527552     0.742917    Uiso  ? C
   C11        1.0     0.907798     0.786768     0.147273    Uiso  ? C
   C12        1.0     0.163823     0.858527     0.056724    Uiso  ? C
   C13        1.0     0.065795     0.828874     0.252278    Uiso  ? C
   C14        1.0     0.054168     0.702486     0.740018    Uiso  ? C
   C15        1.0     0.430531     0.953622     0.110240    Uiso  ? C
   C16        1.0     0.396238     0.980977     0.941448    Uiso  ? C
   C17        1.0     0.428827     0.176242     0.157666    Uiso  ? C
   C18        1.0     0.634612     0.369993     0.101637    Uiso  ? C
   C19        1.0     0.581945     0.477976     0.951702    Uiso  ? C
   C20        1.0     0.581851     0.476039     0.278358    Uiso  ? C
   C21        1.0     0.320145     0.411134     0.536826    Uiso  ? C
   C22        1.0     0.375284     0.418341     0.699119    Uiso  ? C
   C23        1.0     0.331042     0.698292     0.193674    Uiso  ? C
   C24        1.0     0.307834     0.898827     0.311444    Uiso  ? C
   C25        1.0     0.454423     0.981807     0.482229    Uiso  ? C
   C26        1.0     0.456556     0.578780     0.896981    Uiso  ? C
   C27        1.0     0.382614     0.664375     0.773565    Uiso  ? C
   C28        1.0     0.904433     0.032149     0.102569    Uiso  ? C
   C29        1.0     0.623945     0.216099     0.246143    Uiso  ? C
   C30        1.0     0.876682     0.030512     0.485807    Uiso  ? C
   C31        1.0     0.664833     0.295039     0.493893    Uiso  ? C
   C32        1.0     0.636406     0.284733     0.661769    Uiso  ? C
   C33        1.0     0.748921     0.178726     0.013906    Uiso  ? C
   C34        1.0     0.951137     0.311489     0.067071    Uiso  ? C
   C35        1.0     0.994343     0.530412     0.943663    Uiso  ? C
   C36        1.0     0.897818     0.619270     0.027823    Uiso  ? C
   C37        1.0     0.777555     0.412138     0.948594    Uiso  ? C
   C38        1.0     0.793175     0.506827     0.247316    Uiso  ? C
   C39        1.0     0.795002     0.540553     0.729223    Uiso  ? C
   C40        1.0     0.856098     0.747165     0.662109    Uiso  ? C
   C41        1.0     0.692339     0.915003     0.223101    Uiso  ? C
   C42        1.0     0.914000     0.631192     0.383728    Uiso  ? C
   C43        1.0     0.869808     0.772227     0.472781    Uiso  ? C
   C44        1.0     0.690392     0.822413     0.581280    Uiso  ? C
   O1         1.0     0.069210     0.241634     0.307401    Uiso  ? O
   O2         1.0     0.171961     0.046598     0.716559    Uiso  ? O
   O3         1.0     0.061028     0.274487     0.168443    Uiso  ? O
   O4         1.0     0.184471     0.465746     0.108152    Uiso  ? O
   O5         1.0     0.125381     0.254168     0.437318    Uiso  ? O
   O6         1.0     0.113911     0.528682     0.292325    Uiso  ? O
   O7         1.0     0.160768     0.433232     0.382884    Uiso  ? O
   O8         1.0     0.063144     0.286607     0.869444    Uiso  ? O
   O9         1.0     0.191659     0.395690     0.765365    Uiso  ? O
   O10        1.0     0.049763     0.988945     0.203180    Uiso  ? O
   O11        1.0     0.144924     0.032600     0.075285    Uiso  ? O
   O12        1.0     0.046340     0.629322     0.513366    Uiso  ? O
   O13        1.0     0.145474     0.578758     0.437288    Uiso  ? O
   O14        1.0     0.222910     0.781530     0.451164    Uiso  ? O
   O15        1.0     0.189060     0.919898     0.408357    Uiso  ? O
   O16        1.0     0.043898     0.894701     0.972221    Uiso  ? O
   O17        1.0     0.089878     0.936184     0.833003    Uiso  ? O
   O18        1.0     0.217400     0.915530     0.759518    Uiso  ? O
   O19        1.0     0.283170     0.040561     0.520299    Uiso  ? O
   O20        1.0     0.287051     0.177629     0.609680    Uiso  ? O
   O21        1.0     0.281322     0.092843     0.828597    Uiso  ? O
   O22        1.0     0.453688     0.179428     0.884272    Uiso  ? O
   O23        1.0     0.441704     0.167177     0.595351    Uiso  ? O
   O24        1.0     0.469885     0.094464     0.715146    Uiso  ? O
   O25        1.0     0.502921     0.185870     0.017921    Uiso  ? O
   O26        1.0     0.243947     0.378359     0.200585    Uiso  ? O
   O27        1.0     0.456219     0.325075     0.058061    Uiso  ? O
   O28        1.0     0.394088     0.245469     0.489707    Uiso  ? O
   O29        1.0     0.148815     0.404887     0.524377    Uiso  ? O
   O30        1.0     0.240863     0.493526     0.640713    Uiso  ? O
   O31        1.0     0.397409     0.439103     0.276809    Uiso  ? O
   O32        1.0     0.455157     0.409245     0.402430    Uiso  ? O
   O33        1.0     0.417934     0.309552     0.832530    Uiso  ? O
   O34        1.0     0.474522     0.273978     0.713008    Uiso  ? O
   O35        1.0     0.255853     0.399461     0.893553    Uiso  ? O
   O36        1.0     0.377179     0.398593     0.985873    Uiso  ? O
   O37        1.0     0.315476     0.522890     0.004711    Uiso  ? O
   O38        1.0     0.552536     0.479435     0.750158    Uiso  ? O
   O39        1.0     0.405272     0.553436     0.161842    Uiso  ? O
   O40        1.0     0.519399     0.532355     0.074748    Uiso  ? O
   O41        1.0     0.512367     0.888313     0.207105    Uiso  ? O
   O42        1.0     0.507393     0.698782     0.060037    Uiso  ? O
   O43        1.0     0.564057     0.900780     0.066602    Uiso  ? O
   O44        1.0     0.325945     0.594848     0.518559    Uiso  ? O
   O45        1.0     0.211182     0.681106     0.567285    Uiso  ? O
   O46        1.0     0.247361     0.778216     0.694415    Uiso  ? O
   O47        1.0     0.531271     0.636950     0.717495    Uiso  ? O
   O48        1.0     0.388650     0.786867     0.618806    Uiso  ? O
   O49        1.0     0.539434     0.812032     0.685318    Uiso  ? O
   O50        1.0     0.528538     0.977274     0.663156    Uiso  ? O
   O51        1.0     0.631781     0.075224     0.147192    Uiso  ? O
   O52        1.0     0.880066     0.162251     0.920449    Uiso  ? O
   O53        1.0     0.761334     0.002107     0.008178    Uiso  ? O
   O54        1.0     0.655449     0.120364     0.434040    Uiso  ? O
   O55        1.0     0.897479     0.159186     0.243862    Uiso  ? O
   O56        1.0     0.728058     0.127266     0.268578    Uiso  ? O
   O57        1.0     0.802075     0.077958     0.370100    Uiso  ? O
   O58        1.0     0.944012     0.088880     0.822239    Uiso  ? O
   O59        1.0     0.581030     0.053717     0.792561    Uiso  ? O
   O60        1.0     0.684767     0.053094     0.897562    Uiso  ? O
   O61        1.0     0.591807     0.151016     0.913301    Uiso  ? O
   O62        1.0     0.715740     0.167247     0.569012    Uiso  ? O
   O63        1.0     0.793004     0.272814     0.164839    Uiso  ? O
   O64        1.0     0.974752     0.424059     0.193551    Uiso  ? O
   O65        1.0     0.886383     0.444304     0.081734    Uiso  ? O
   O66        1.0     0.829794     0.292057     0.465368    Uiso  ? O
   O67        1.0     0.888229     0.281276     0.334808    Uiso  ? O
   O68        1.0     0.563778     0.423324     0.513784    Uiso  ? O
   O69        1.0     0.556946     0.540627     0.614977    Uiso  ? O
   O70        1.0     0.981767     0.566081     0.279329    Uiso  ? O
   O71        1.0     0.830731     0.408324     0.357308    Uiso  ? O
   O72        1.0     0.746147     0.232904     0.829630    Uiso  ? O
   O73        1.0     0.796489     0.218497     0.696070    Uiso  ? O
   O74        1.0     0.902121     0.611696     0.593221    Uiso  ? O
   O75        1.0     0.717244     0.545640     0.593527    Uiso  ? O
   O76        1.0     0.590609     0.684729     0.174525    Uiso  ? O
   O77        1.0     0.725650     0.838542     0.096063    Uiso  ? O
   O78        1.0     0.901781     0.829611     0.878930    Uiso  ? O
   O79        1.0     0.834156     0.890057     0.981202    Uiso  ? O
   O80        1.0     0.664961     0.632376     0.497252    Uiso  ? O
   O81        1.0     0.521497     0.715513     0.491667    Uiso  ? O
   O82        1.0     0.677831     0.900605     0.444613    Uiso  ? O
   O83        1.0     0.567307     0.891519     0.555509    Uiso  ? O
   O84        1.0     0.913589     0.846528     0.297676    Uiso  ? O
   O85        1.0     0.758218     0.790560     0.231727    Uiso  ? O
   O86        1.0     0.736215     0.711319     0.361257    Uiso  ? O
   O87        1.0     0.811012     0.914842     0.351923    Uiso  ? O
   O88        1.0     0.586282     0.783684     0.811994    Uiso  ? O
   O89        1.0     0.709047     0.755292     0.884352    Uiso  ? O
   O90        1.0     0.757331     0.943200     0.850940    Uiso  ? O
   O91        1.0     0.612978     0.825337     0.950398    Uiso  ? O
