
#======================================================================
# CRYSTAL DATA
#----------------------------------------------------------------------
data_VESTA_phase_1

_chemical_name_common                  '333U-50C-1                            '
_cell_length_a                         17.141708
_cell_length_b                         15.321279
_cell_length_c                         17.589289
_cell_angle_alpha                      89.228928
_cell_angle_beta                       89.900597
_cell_angle_gamma                      123.166885
_cell_volume                           3866.337006
_space_group_name_H-M_alt              'P 1'
_space_group_IT_number                 1

loop_
_space_group_symop_operation_xyz
   'x, y, z'

loop_
   _atom_site_label
   _atom_site_occupancy
   _atom_site_fract_x
   _atom_site_fract_y
   _atom_site_fract_z
   _atom_site_adp_type
   _atom_site_U_iso_or_equiv
   _atom_site_type_symbol
   Si1        1.0     0.234503     0.018971     0.141294    Uiso  ? Si
   Si2        1.0     0.105882     0.248714     0.294550    Uiso  ? Si
   Si3        1.0     0.181352    -0.008620     0.450748    Uiso  ? Si
   Si4        1.0     0.910856     0.093023     0.589122    Uiso  ? Si
   Si5        1.0     0.233183     0.176313     0.344561    Uiso  ? Si
   Si6        1.0     0.104259     0.946068     0.772233    Uiso  ? Si
   Si7        1.0     0.932200     0.135820     0.854502    Uiso  ? Si
   Si8        1.0     0.056233     0.087436     0.684444    Uiso  ? Si
   Si9        1.0     0.124663     0.300644     0.116280    Uiso  ? Si
   Si10       1.0     0.016076     0.528435     0.201850    Uiso  ? Si
   Si11       1.0     0.000892     0.436196     0.534126    Uiso  ? Si
   Si12       1.0     0.194568     0.307102     0.736771    Uiso  ? Si
   Si13       1.0     0.066244     0.466199     0.872876    Uiso  ? Si
   Si14       1.0     0.195227     0.686935     0.107298    Uiso  ? Si
   Si15       1.0     0.216143     0.876915     0.010431    Uiso  ? Si
   Si16       1.0     0.061716     0.661916     0.542421    Uiso  ? Si
   Si17       1.0     0.878821     0.811364     0.555881    Uiso  ? Si
   Si18       1.0     0.044598     0.861063     0.930741    Uiso  ? Si
   Si19       1.0     0.500163    -0.011959     0.087228    Uiso  ? Si
   Si20       1.0     0.394148     0.189137     0.237933    Uiso  ? Si
   Si21       1.0     0.532838     0.191673     0.024392    Uiso  ? Si
   Si22       1.0     0.479026     0.978835     0.423359    Uiso  ? Si
   Si23       1.0     0.376279     0.162343     0.527058    Uiso  ? Si
   Si24       1.0     0.544788     0.147189     0.298784    Uiso  ? Si
   Si25       1.0     0.458724     0.981973     0.739713    Uiso  ? Si
   Si26       1.0     0.381899     0.202485     0.924309    Uiso  ? Si
   Si27       1.0     0.514879     0.167327     0.632616    Uiso  ? Si
   Si28       1.0     0.559759     0.349916     0.148155    Uiso  ? Si
   Si29       1.0     0.399229     0.482411     0.253431    Uiso  ? Si
   Si30       1.0     0.446810     0.488332     0.966823    Uiso  ? Si
   Si31       1.0     0.521065     0.338218     0.424209    Uiso  ? Si
   Si32       1.0     0.492241     0.521298     0.411408    Uiso  ? Si
   Si33       1.0     0.468640     0.337118     0.781846    Uiso  ? Si
   Si34       1.0     0.276265     0.464823     0.869875    Uiso  ? Si
   Si35       1.0     0.440339     0.486471     0.670487    Uiso  ? Si
   Si36       1.0     0.506953     0.623751     0.115250    Uiso  ? Si
   Si37       1.0     0.356092     0.843627     0.223390    Uiso  ? Si
   Si38       1.0     0.444077     0.819952     0.955644    Uiso  ? Si
   Si39       1.0     0.387069     0.605298     0.482169    Uiso  ? Si
   Si40       1.0     0.437857     0.773507     0.359575    Uiso  ? Si
   Si41       1.0     0.411881     0.644897     0.764961    Uiso  ? Si
   Si42       1.0     0.311593     0.861790     0.869941    Uiso  ? Si
   Si43       1.0     0.406685     0.797339     0.645625    Uiso  ? Si
   Si44       1.0     0.820954     0.980959     0.069982    Uiso  ? Si
   Si45       1.0     0.673925     0.134962     0.177568    Uiso  ? Si
   Si46       1.0     0.831641     0.174550    -0.012903    Uiso  ? Si
   Si47       1.0     0.748751     0.931553     0.482547    Uiso  ? Si
   Si48       1.0     0.645658     0.133551     0.532576    Uiso  ? Si
   Si49       1.0     0.766317     0.950390     0.763932    Uiso  ? Si
   Si50       1.0     0.702765     0.240852     0.921340    Uiso  ? Si
   Si51       1.0     0.788601     0.172873     0.632770    Uiso  ? Si
   Si52       1.0     0.856058     0.336815     0.101953    Uiso  ? Si
   Si53       1.0     0.716260     0.510529     0.241114    Uiso  ? Si
   Si54       1.0     0.858709     0.520780     0.018502    Uiso  ? Si
   Si55       1.0     0.828936     0.277443     0.444801    Uiso  ? Si
   Si56       1.0     0.724238     0.453946     0.482759    Uiso  ? Si
   Si57       1.0     0.899688     0.561306     0.319945    Uiso  ? Si
   Si58       1.0     0.867856     0.429236     0.825042    Uiso  ? Si
   Si59       1.0     0.851599     0.680121     0.123151    Uiso  ? Si
   Si60       1.0     0.692413     0.789867     0.168138    Uiso  ? Si
   Si61       1.0     0.864487     0.826475    -0.010157    Uiso  ? Si
   Si62       1.0     0.839748     0.678482     0.406080    Uiso  ? Si
   Si63       1.0     0.563075     0.788506     0.573572    Uiso  ? Si
   Si64       1.0     0.820669     0.822142     0.295354    Uiso  ? Si
   Si65       1.0     0.580824     0.811829     0.864835    Uiso  ? Si
   Si66       1.0     0.713685     0.766389     0.660595    Uiso  ? Si
   C1         1.0     0.160219     0.063643     0.104660    Uiso  ? C
   C2         1.0     0.181244     0.928454     0.225190    Uiso  ? C
   C3         1.0     0.147116     0.348603     0.370458    Uiso  ? C
   C4         1.0     0.269396     0.267910     0.423006    Uiso  ? C
   C5         1.0     0.022852     0.127483     0.904768    Uiso  ? C
   C6         1.0     0.081858     0.501317     0.270694    Uiso  ? C
   C7         1.0     0.173735     0.387452     0.669932    Uiso  ? C
   C8         1.0     0.222572     0.597840     0.063839    Uiso  ? C
   C9         1.0     0.127288     0.685249     0.451316    Uiso  ? C
   C10        1.0     0.126387     0.753032     0.621852    Uiso  ? C
   C11        1.0     0.924938     0.767966     0.631960    Uiso  ? C
   C12        1.0     0.364212     0.956588     0.441579    Uiso  ? C
   C13        1.0     0.374125     0.257800     0.588363    Uiso  ? C
   C14        1.0     0.129138     0.120118     0.597903    Uiso  ? C
   C15        1.0     0.226426     0.022621     0.737081    Uiso  ? C
   C16        1.0     0.246953     0.358677     0.084311    Uiso  ? C
   C17        1.0     0.322210     0.532527     0.258927    Uiso  ? C
   C18        1.0     0.567477     0.447464     0.081789    Uiso  ? C
   C19        1.0     0.558303     0.541745     0.914181    Uiso  ? C
   C20        1.0     0.596892     0.397789     0.789008    Uiso  ? C
   C21        1.0     0.478845     0.722188     0.133684    Uiso  ? C
   C22        1.0     0.313796     0.732223     0.574157    Uiso  ? C
   C23        1.0     0.907031     0.049150     0.146027    Uiso  ? C
   C24        1.0    -0.018252     0.156612     0.322499    Uiso  ? C
   C25        1.0     0.707945     0.057577     0.232652    Uiso  ? C
   C26        1.0     0.757017     0.016974     0.404150    Uiso  ? C
   C27        1.0     0.566434    -0.015512     0.749733    Uiso  ? C
   C28        1.0     0.625474     0.183418     0.839636    Uiso  ? C
   C29        1.0     0.605883     0.631685     0.441366    Uiso  ? C
   C30        1.0     0.979825     0.587393     0.979050    Uiso  ? C
   C31        1.0     0.759127     0.506902     0.964080    Uiso  ? C
   C32        1.0     0.759445     0.467288     0.583633    Uiso  ? C
   C33        1.0     0.826607     0.289002     0.340337    Uiso  ? C
   C34        1.0     0.844468     0.357521     0.736283    Uiso  ? C
   C35        1.0     0.871366     0.550130     0.798562    Uiso  ? C
   C36        1.0     0.961857     0.784418     0.164724    Uiso  ? C
   C37        1.0     0.545122     0.784348     0.330655    Uiso  ? C
   C38        1.0     0.948188     0.916038     0.307183    Uiso  ? C
   C39        1.0     0.627442     0.788753     0.950352    Uiso  ? C
   C40        1.0     0.816879     0.770629     0.895254    Uiso  ? C
   C41        1.0     0.684585     0.647022     0.713288    Uiso  ? C
   H1         1.0     0.190462     0.909558     0.417063    Uiso  ? H
   H2         1.0     0.982914     0.150329     0.528991    Uiso  ? H
   H3         1.0     0.056790     0.833516     0.754988    Uiso  ? H
   H4         1.0     0.084746     0.358617     0.084809    Uiso  ? H
   H5         1.0     0.070288     0.192704     0.087336    Uiso  ? H
   H6         1.0     0.990152     0.361779     0.594135    Uiso  ? H
   H7         1.0     0.077469     0.459984     0.479977    Uiso  ? H
   H8         1.0     0.962791     0.205542     0.786517    Uiso  ? H
   H9         1.0     0.271885     0.296369     0.712910    Uiso  ? H
   H10        1.0     0.084569     0.408536     0.815658    Uiso  ? H
   H11        1.0     0.054729     0.417804     0.949570    Uiso  ? H
   H12        1.0    -0.022498     0.663720     0.524796    Uiso  ? H
   H13        1.0     0.936800     0.925743     0.542259    Uiso  ? H
   H14        1.0     0.096210     0.942604     0.499293    Uiso  ? H
   H15        1.0    -0.011266     0.760620     0.891312    Uiso  ? H
   H16        1.0     0.322323     0.206227     0.983547    Uiso  ? H
   H17        1.0     0.331272     0.106424     0.879071    Uiso  ? H
   H18        1.0     0.344223     0.367098     0.254787    Uiso  ? H
   H19        1.0     0.407286     0.385362     0.003830    Uiso  ? H
   H20        1.0     0.600331     0.234390     0.350785    Uiso  ? H
   H21        1.0     0.546291     0.340729     0.344271    Uiso  ? H
   H22        1.0     0.542462     0.273598     0.651597    Uiso  ? H
   H23        1.0     0.422709     0.238642     0.739081    Uiso  ? H
   H24        1.0     0.211816     0.464347     0.925895    Uiso  ? H
   H25        1.0     0.355780     0.422037     0.624788    Uiso  ? H
   H26        1.0     0.327618     0.901985     0.268044    Uiso  ? H
   H27        1.0     0.422339     0.717342     0.982245    Uiso  ? H
   H28        1.0     0.301408     0.550921     0.528711    Uiso  ? H
   H29        1.0     0.231016     0.787294     0.823434    Uiso  ? H
   H30        1.0     0.764200     0.019939     0.707453    Uiso  ? H
   H31        1.0     0.814449     0.276993     0.605655    Uiso  ? H
   H32        1.0     0.654640     0.520790     0.293326    Uiso  ? H
   H33        1.0     0.146026     0.577263     0.873337    Uiso  ? H
   H34        1.0     0.859104     0.206959     0.468817    Uiso  ? H
   H35        1.0     0.763215     0.408584     0.434687    Uiso  ? H
   H36        1.0     0.524271     0.531713     0.620958    Uiso  ? H
   H37        1.0     0.910581     0.498132     0.377111    Uiso  ? H
   H38        1.0     0.755262     0.149504     0.712129    Uiso  ? H
   H39        1.0     0.642334     0.797956     0.231710    Uiso  ? H
   H40        1.0     0.765482     0.858980     0.330483    Uiso  ? H
   H41        1.0     0.772785     0.858362     0.454835    Uiso  ? H
   H42        1.0     0.147756     0.102544     0.150838    Uiso  ? H
   H43        1.0     0.092526    -0.001176     0.084704    Uiso  ? H
   H44        1.0     0.194628     0.119996     0.057352    Uiso  ? H
   H45        1.0     0.234760     0.943218     0.266639    Uiso  ? H
   H46        1.0     0.144520     0.846060     0.209622    Uiso  ? H
   H47        1.0     0.131081     0.940599     0.253945    Uiso  ? H
   H48        1.0     0.121815     0.307942     0.425767    Uiso  ? H
   H49        1.0     0.114286     0.392429     0.361492    Uiso  ? H
   H50        1.0     0.222008     0.404980     0.374743    Uiso  ? H
   H51        1.0     0.297672     0.348019     0.404169    Uiso  ? H
   H52        1.0     0.323821     0.269749     0.455899    Uiso  ? H
   H53        1.0     0.209537     0.243697     0.460659    Uiso  ? H
   H54        1.0     0.043169     0.080543     0.874815    Uiso  ? H
   H55        1.0    -0.001899     0.093258     0.961889    Uiso  ? H
   H56        1.0     0.085347     0.206510     0.910505    Uiso  ? H
   H57        1.0     0.103862     0.452970     0.245282    Uiso  ? H
   H58        1.0     0.039340     0.460232     0.321519    Uiso  ? H
   H59        1.0     0.144205     0.574591     0.289371    Uiso  ? H
   H60        1.0     0.108462     0.380800     0.685360    Uiso  ? H
   H61        1.0     0.167735     0.361153     0.611075    Uiso  ? H
   H62        1.0     0.230512     0.470202     0.671356    Uiso  ? H
   H63        1.0     0.167122     0.545303     0.024708    Uiso  ? H
   H64        1.0     0.226708     0.549480     0.108253    Uiso  ? H
   H65        1.0     0.288485     0.638982     0.031756    Uiso  ? H
   H66        1.0     0.081949     0.624339     0.410752    Uiso  ? H
   H67        1.0     0.190302     0.684050     0.458352    Uiso  ? H
   H68        1.0     0.146969     0.760383     0.425424    Uiso  ? H
   H69        1.0     0.162805     0.835514     0.603973    Uiso  ? H
   H70        1.0     0.177991     0.740009     0.646495    Uiso  ? H
   H71        1.0     0.077271     0.739833     0.667726    Uiso  ? H
   H72        1.0     0.887099     0.682541     0.635352    Uiso  ? H
   H73        1.0     0.918109     0.796912     0.686732    Uiso  ? H
   H74        1.0    -0.001114     0.799136     0.622273    Uiso  ? H
   H75        1.0     0.313396     0.888349     0.408804    Uiso  ? H
   H76        1.0     0.362762     0.023188     0.420432    Uiso  ? H
   H77        1.0     0.343422     0.942216     0.501641    Uiso  ? H
   H78        1.0     0.345416     0.223640     0.644714    Uiso  ? H
   H79        1.0     0.334314     0.288032     0.564919    Uiso  ? H
   H80        1.0     0.446307     0.324180     0.595857    Uiso  ? H
   H81        1.0     0.149372     0.197221     0.575603    Uiso  ? H
   H82        1.0     0.089611     0.062871     0.553624    Uiso  ? H
   H83        1.0     0.192858     0.121814     0.608202    Uiso  ? H
   H84        1.0     0.229302     0.012227     0.675610    Uiso  ? H
   H85        1.0     0.268390    -0.002262     0.765323    Uiso  ? H
   H86        1.0     0.259856     0.106197     0.747920    Uiso  ? H
   H87        1.0     0.245162     0.338628     0.024211    Uiso  ? H
   H88        1.0     0.279919     0.325019     0.115968    Uiso  ? H
   H89        1.0     0.291182     0.443791     0.088356    Uiso  ? H
   H90        1.0     0.356151     0.611970     0.235626    Uiso  ? H
   H91        1.0     0.298845     0.533678     0.316508    Uiso  ? H
   H92        1.0     0.259914     0.481953     0.224966    Uiso  ? H
   H93        1.0     0.625154     0.526797     0.094610    Uiso  ? H
   H94        1.0     0.502090     0.443283     0.087123    Uiso  ? H
   H95        1.0     0.575469     0.429643     0.023369    Uiso  ? H
   H96        1.0     0.559505     0.584066     0.862927    Uiso  ? H
   H97        1.0     0.569323     0.480689     0.898061    Uiso  ? H
   H98        1.0     0.615878     0.595766     0.950958    Uiso  ? H
   H99        1.0     0.623277     0.376632     0.740399    Uiso  ? H
   H100       1.0     0.613361     0.371588     0.841387    Uiso  ? H
   H101       1.0     0.634794     0.482973     0.789967    Uiso  ? H
   H102       1.0     0.490903     0.747058     0.192880    Uiso  ? H
   H103       1.0     0.406208     0.692936     0.120141    Uiso  ? H
   H104       1.0     0.523618     0.791818     0.098115    Uiso  ? H
   H105       1.0     0.259794     0.651380     0.589841    Uiso  ? H
   H106       1.0     0.340796     0.734164     0.517327    Uiso  ? H
   H107       1.0     0.281391     0.776944     0.569984    Uiso  ? H
   H108       1.0     0.931993     0.131946     0.147655    Uiso  ? H
   H109       1.0     0.967359     0.042492     0.141595    Uiso  ? H
   H110       1.0     0.870635     0.012793     0.199912    Uiso  ? H
   H111       1.0    -0.021588     0.127691     0.380784    Uiso  ? H
   H112       1.0    -0.058769     0.089921     0.285706    Uiso  ? H
   H113       1.0     0.948666     0.201205     0.323165    Uiso  ? H
   H114       1.0     0.781399     0.101523     0.248941    Uiso  ? H
   H115       1.0     0.694548    -0.008266     0.198027    Uiso  ? H
   H116       1.0     0.664881     0.026410     0.284368    Uiso  ? H
   H117       1.0     0.716191     0.050658     0.416564    Uiso  ? H
   H118       1.0     0.727197     0.968219     0.353947    Uiso  ? H
   H119       1.0     0.828671     0.079291     0.389720    Uiso  ? H
   H120       1.0     0.550863     0.905849     0.742653    Uiso  ? H
   H121       1.0     0.603699     0.014027     0.802779    Uiso  ? H
   H122       1.0     0.612347     0.030781     0.701850    Uiso  ? H
   H123       1.0     0.658940     0.174035     0.790269    Uiso  ? H
   H124       1.0     0.602160     0.234588     0.822738    Uiso  ? H
   H125       1.0     0.563126     0.107907     0.856005    Uiso  ? H
   H126       1.0     0.621555     0.619342     0.499468    Uiso  ? H
   H127       1.0     0.610494     0.705637     0.439222    Uiso  ? H
   H128       1.0     0.659541     0.638809     0.403080    Uiso  ? H
   H129       1.0    -0.010664     0.609045     0.918780    Uiso  ? H
   H130       1.0     0.007272     0.538208    -0.010942    Uiso  ? H
   H131       1.0     0.022556     0.658547     0.011685    Uiso  ? H
   H132       1.0     0.762777     0.502429     0.902529    Uiso  ? H
   H133       1.0     0.751299     0.571488     0.977357    Uiso  ? H
   H134       1.0     0.696330     0.433905    -0.015996    Uiso  ? H
   H135       1.0     0.731867     0.389550     0.608756    Uiso  ? H
   H136       1.0     0.731946     0.505600     0.616389    Uiso  ? H
   H137       1.0     0.835691     0.512745     0.588451    Uiso  ? H
   H138       1.0     0.793546     0.330267     0.322684    Uiso  ? H
   H139       1.0     0.784294     0.209819     0.318162    Uiso  ? H
   H140       1.0     0.895781     0.327291     0.313491    Uiso  ? H
   H141       1.0     0.772450     0.319930     0.716897    Uiso  ? H
   H142       1.0     0.861094     0.298357     0.744649    Uiso  ? H
   H143       1.0     0.891102     0.412779     0.691828    Uiso  ? H
   H144       1.0     0.892538     0.608400     0.842704    Uiso  ? H
   H145       1.0     0.803758     0.530232     0.776142    Uiso  ? H
   H146       1.0     0.922458     0.586876     0.751537    Uiso  ? H
   H147       1.0     0.964017     0.856301     0.173249    Uiso  ? H
   H148       1.0     0.017092     0.801460     0.123701    Uiso  ? H
   H149       1.0     0.977472     0.760053     0.218320    Uiso  ? H
   H150       1.0     0.583422     0.849565     0.290140    Uiso  ? H
   H151       1.0     0.534353     0.713675     0.305548    Uiso  ? H
   H152       1.0     0.588496     0.802632     0.381070    Uiso  ? H
   H153       1.0     0.981805     0.978797     0.264283    Uiso  ? H
   H154       1.0     0.984287     0.875005     0.307384    Uiso  ? H
   H155       1.0     0.959428     0.952164     0.363119    Uiso  ? H
   H156       1.0     0.682346     0.775064     0.939035    Uiso  ? H
   H157       1.0     0.572723     0.723707     0.984264    Uiso  ? H
   H158       1.0     0.657343     0.860038     0.983587    Uiso  ? H
   H159       1.0     0.849062     0.729214     0.876055    Uiso  ? H
   H160       1.0     0.835452     0.833576     0.853817    Uiso  ? H
   H161       1.0     0.741460     0.714238     0.894044    Uiso  ? H
   H162       1.0     0.657809     0.580201     0.675662    Uiso  ? H
   H163       1.0     0.632153     0.627080     0.757810    Uiso  ? H
   H164       1.0     0.747765     0.660724     0.740897    Uiso  ? H
   O1         1.0     0.162703     0.188944     0.289073    Uiso  ? O
   O2         1.0     0.172327     0.056895     0.380972    Uiso  ? O
   O3         1.0     0.952754     0.058557     0.658228    Uiso  ? O
   O4         1.0     0.042693     0.987389     0.732231    Uiso  ? O
   O5         1.0     0.114209     0.300775     0.210116    Uiso  ? O
   O6         1.0     0.101625     0.187032     0.741642    Uiso  ? O
   O7         1.0     0.087962     0.618645     0.140511    Uiso  ? O
   O8         1.0     0.201961     0.769910     0.043971    Uiso  ? O
   O9         1.0     0.262635    -0.032781     0.073117    Uiso  ? O
   O10        1.0     0.024704     0.542723     0.576106    Uiso  ? O
   O11        1.0     0.114744     0.854788     0.988724    Uiso  ? O
   O12        1.0     0.100568     0.953650     0.865962    Uiso  ? O
   O13        1.0     0.336088     0.121929     0.165038    Uiso  ? O
   O14        1.0     0.322441     0.190563     0.298196    Uiso  ? O
   O15        1.0     0.477104     0.066535     0.044175    Uiso  ? O
   O16        1.0     0.270816     0.066585     0.505597    Uiso  ? O
   O17        1.0     0.447710     0.138511     0.277522    Uiso  ? O
   O18        1.0     0.519181     0.038131     0.340694    Uiso  ? O
   O19        1.0     0.472746     0.211195     0.963100    Uiso  ? O
   O20        1.0     0.428088     0.114138     0.573004    Uiso  ? O
   O21        1.0     0.480001     0.094768     0.709097    Uiso  ? O
   O22        1.0     0.471780     0.307753     0.208632    Uiso  ? O
   O23        1.0     0.543535     0.248887     0.103767    Uiso  ? O
   O24        1.0     0.437927     0.218774     0.449068    Uiso  ? O
   O25        1.0     0.479335     0.525950     0.319752    Uiso  ? O
   O26        1.0     0.481358     0.412189     0.436364    Uiso  ? O
   O27        1.0     0.418461     0.304477     0.866877    Uiso  ? O
   O28        1.0     0.218305     0.356469     0.822486    Uiso  ? O
   O29        1.0     0.364342     0.474560     0.911569    Uiso  ? O
   O30        1.0     0.448520     0.419605     0.740119    Uiso  ? O
   O31        1.0     0.457339     0.523175     0.173144    Uiso  ? O
   O32        1.0     0.467875     0.576228     0.031212    Uiso  ? O
   O33        1.0     0.267898     0.751454     0.176512    Uiso  ? O
   O34        1.0     0.439316     0.927608     0.164636    Uiso  ? O
   O35        1.0     0.477117     0.897779     0.027102    Uiso  ? O
   O36        1.0     0.402569     0.516021     0.451364    Uiso  ? O
   O37        1.0     0.385811     0.784384     0.284783    Uiso  ? O
   O38        1.0     0.371489     0.664783     0.410413    Uiso  ? O
   O39        1.0     0.466123     0.865744     0.419810    Uiso  ? O
   O40        1.0     0.316464     0.566565     0.813268    Uiso  ? O
   O41        1.0     0.431655     0.579018     0.705312    Uiso  ? O
   O42        1.0     0.349989     0.799261     0.915409    Uiso  ? O
   O43        1.0     0.393610     0.954735     0.816214    Uiso  ? O
   O44        1.0     0.280284     0.914528     0.933213    Uiso  ? O
   O45        1.0     0.390736     0.722670     0.719707    Uiso  ? O
   O46        1.0     0.399137     0.894014     0.674365    Uiso  ? O
   O47        1.0     0.610751     0.058832     0.107295    Uiso  ? O
   O48        1.0     0.607702     0.162451     0.224736    Uiso  ? O
   O49        1.0     0.896318     0.190561     0.913774    Uiso  ? O
   O50        1.0     0.800573     0.062299     0.027164    Uiso  ? O
   O51        1.0     0.817957     0.992299     0.554412    Uiso  ? O
   O52        1.0     0.557326     0.042597     0.487975    Uiso  ? O
   O53        1.0     0.608513     0.180472     0.595549    Uiso  ? O
   O54        1.0     0.848044     0.017193     0.826217    Uiso  ? O
   O55        1.0     0.739873     0.169783     0.955793    Uiso  ? O
   O56        1.0     0.637631     0.243832    -0.011115    Uiso  ? O
   O57        1.0     0.882081     0.169933     0.623750    Uiso  ? O
   O58        1.0     0.700681     0.088617     0.578145    Uiso  ? O
   O59        1.0     0.765446     0.246292     0.149729    Uiso  ? O
   O60        1.0     0.886523     0.272686     0.046737    Uiso  ? O
   O61        1.0     0.940403     0.418154     0.158923    Uiso  ? O
   O62        1.0     0.655686     0.399511     0.197264    Uiso  ? O
   O63        1.0     0.827236     0.404402     0.052397    Uiso  ? O
   O64        1.0     0.720370     0.226617     0.474799    Uiso  ? O
   O65        1.0     0.903901     0.389414     0.485315    Uiso  ? O
   O66        1.0     0.609664     0.377520     0.480628    Uiso  ? O
   O67        1.0     0.968126     0.581988     0.247583    Uiso  ? O
   O68        1.0     0.793080     0.500836     0.289039    Uiso  ? O
   O69        1.0     0.792098     0.356649     0.893659    Uiso  ? O
   O70        1.0     0.971946     0.461737     0.849925    Uiso  ? O
   O71        1.0     0.763787     0.610850     0.182741    Uiso  ? O
   O72        1.0     0.871150     0.595029     0.090251    Uiso  ? O
   O73        1.0     0.621657     0.681150     0.123044    Uiso  ? O
   O74        1.0     0.722820     0.888476     0.110423    Uiso  ? O
   O75        1.0     0.978442     0.882460    -0.016575    Uiso  ? O
   O76        1.0     0.821597     0.733489     0.055782    Uiso  ? O
   O77        1.0     0.850158     0.920979     0.010947    Uiso  ? O
   O78        1.0     0.757679     0.567967     0.443667    Uiso  ? O
   O79        1.0     0.920377     0.667512     0.363709    Uiso  ? O
   O80        1.0     0.882272     0.764230     0.472935    Uiso  ? O
   O81        1.0     0.478737     0.683695     0.532948    Uiso  ? O
   O82        1.0     0.638845     0.866002     0.509898    Uiso  ? O
   O83        1.0     0.512780     0.841453     0.613006    Uiso  ? O
   O84        1.0     0.785419     0.799883     0.205506    Uiso  ? O
   O85        1.0     0.794220     0.713392     0.340126    Uiso  ? O
   O86        1.0     0.502617     0.706355     0.819499    Uiso  ? O
   O87        1.0     0.665732     0.887864     0.806974    Uiso  ? O
   O88        1.0     0.528482     0.869985     0.892537    Uiso  ? O
   O89        1.0     0.772979     0.777150     0.583189    Uiso  ? O
   O90        1.0     0.618542     0.761517     0.635482    Uiso  ? O
   O91        1.0     0.776925     0.864468     0.718221    Uiso  ? O
