LAMMPS (2 Aug 2023 - Update 2)
# Initialization
units           real
dimension       3
boundary        p p p
atom_style      full
timestep        0.5   # fs

variable       Tl equal 300.0   # low temperature
variable       Th equal 2200.0  # high temperature
variable       Td equal 50.0  # damping time
variable       P equal 1.0  # pressure
variable       Ph equal 1.0  # pressure
variable       Pd equal 10*50
variable       nrun equal 100  # number of steps
variable       nequil equal 50*100
variable       nheat equal 20*100
variable       ncool equal 100*100
variable       nthermo equal 100

# Read the initial sctructure
# box tilt large
variable structure string 333-RV-32-vasp
read_data       333-RV-32-vasp.data
Reading data file ...
  triclinic box = (0 0 0) to (15.7087 13.0868 17.5248) with tilt (-8.2042 -0.1458 -2.0056)
  reading atoms ...
  331 atoms
Finding 1-2 1-3 1-4 neighbors ...
     0 = max # of 1-2 neighbors
     0 = max # of 1-3 neighbors
     0 = max # of 1-4 neighbors
     1 = max # of special neighbors

# Assign the force field
pair_style reaxff NULL safezone 3.0 mincap 150
# pair_coeff * * CHONSSi.ff O Si
# pair_coeff * * CHOSiNa.ff O Si
# pair_coeff * * SiOCHN_2018.ff C H O Si
# pair_coeff * * PDMSDecomp.ff Si O
pair_coeff * * CHONSi.ff C H O Si
# pair_coeff * * CHOFe.ff O Si

fix myqeq all qeq/reaxff 1 0.0 10.0 1.0e-6 reaxff maxiter 400
fix bondinfo all reaxff/bonds 100 bonds.reaxff

neighbor        2 bin
neigh_modify    every 10 delay 0 check no

# Print system info
thermo          100
thermo_style    custom step temp press density pe etotal

# Energy minimization
print "*****Minimization starts.*****"
*****Minimization starts.*****
fix min1 all nve
minimize 1.0e-6 1.0e-6 100 1000

CITE-CITE-CITE-CITE-CITE-CITE-CITE-CITE-CITE-CITE-CITE-CITE-CITE

Your simulation uses code contributions which should be cited:

- pair reaxff command: doi:10.1016/j.parco.2011.08.005

@Article{Aktulga12,
 author = {H. M. Aktulga and J. C. Fogarty and S. A. Pandit and A. Y. Grama},
 title = {Parallel Reactive Molecular Dynamics: {N}umerical Methods and Algorithmic Techniques},
 journal = {Parallel Computing},
 year =    2012,
 volume =  38,
 number =  {4--5},
 pages =   {245--259}
}

- fix qeq/reaxff command: doi:10.1016/j.parco.2011.08.005

@Article{Aktulga12,
 author = {H. M. Aktulga and J. C. Fogarty and S. A. Pandit and A. Y. Grama},
 title = {Parallel Reactive Molecular Dynamics: {N}umerical Methods and Algorithmic Techniques},
 journal = {Parallel Computing},
 year =    2012,
 volume =  38,
 pages =   {245--259}
}

CITE-CITE-CITE-CITE-CITE-CITE-CITE-CITE-CITE-CITE-CITE-CITE-CITE

Step          Temp          Press         Density         PotEng         TotEng
0   0              141055.58      1.400369      -34729.82      -34729.82
Loop time of 10.5481 on 1 procs for 11 steps with 331 atoms

Minimization stats:
  Stopping criterion = energy tolerance
  Energy initial, next-to-last, final =
  Force two-norm initial, final = 1956.832 350.68525
  Force max component initial, final = 221.80846 87.444818
  Final line search alpha, max atom move = 0.0015396813 0.13463715
  Iterations, force evaluations = 11 21

unfix min1
# Save the optimized structure
write_data 333-RV-32-vasp_opt.data
System init for write_data ...

reset_timestep 0
# Save trajectory
#dump dump1 all custom 500 dump_opt.lammpstrj id type x y z q
dump dump1 all custom 100 dump_all.lammpstrj   id   type   x   y   z   q

# equilibration at low T
print "*****Equilibration starts.*****"
*****Equilibration starts.*****
velocity        all create 300 12345
fix             equil1 all npt temp 300 300 50 tri 1 1 500
# 1 ps : 1e3 fs / 0.5 fs = 2e3 steps
run             5000
Step          Temp          Press         Density         PotEng         TotEng
0   300            5903.6095      1.400369      -36001.794     -35706.693
Averages over the last 26 of 51 rows, steps 2500 to 5000:
Temp Press Density PotEng TotEng
301.449 1121.52 1.39452 -36525.3 -36228.8
Loop time of 2313.44 on 1 procs for 5000 steps with 331 atoms

# Heat to high T
print "*****Heat starts.*****"
*****Heat starts.*****
unfix           equil1
fix             heat1 all nvt temp 300 2200 50
# 1 ps : 1e3 fs / 0.5 fs = 2e3 steps
run             2000
Step          Temp          Press         Density         PotEng         TotEng
5000   320.77193      10411.794      1.4209157     -36540.834     -36225.301
Averages over the last 11 of 21 rows, steps 6000 to 7000:
Temp Press Density PotEng TotEng
1688.53 11378.7 1.42092 -34870.9 -33209.9
Loop time of 890.443 on 1 procs for 2000 steps with 331 atoms
