LAMMPS (2 Aug 2023 - Update 2)
# Initialization
units           real
dimension       3
boundary        p p p
atom_style      full
timestep        0.5   # fs

variable       Tl equal 300.0   # low temperature
variable       Th equal 2200.0  # high temperature
variable       Td equal 50.0  # damping time
variable       P equal 1.0  # pressure
variable       Ph equal 1.0  # pressure
variable       Pd equal 10*50
variable       nrun equal 100  # number of steps
variable       nequil equal 50*100
variable       nheat equal 20*100
variable       ncool equal 100*100
variable       nthermo equal 100

# Read the initial sctructure
# box tilt large
variable structure string 333U-50C-33-vasp
read_data       333U-50C-33-vasp.data
Reading data file ...
  triclinic box = (0 0 0) to (15.3172 13.8463 18.3222) with tilt (-7.7318 0.2463 -0.1382)
  reading atoms ...
  365 atoms
Finding 1-2 1-3 1-4 neighbors ...
     0 = max # of 1-2 neighbors
     0 = max # of 1-3 neighbors
     0 = max # of 1-4 neighbors
     1 = max # of special neighbors

# Assign the force field
pair_style reaxff NULL safezone 3.0 mincap 150
# pair_coeff * * CHONSSi.ff O Si
# pair_coeff * * CHOSiNa.ff O Si
# pair_coeff * * SiOCHN_2018.ff C H O Si
# pair_coeff * * PDMSDecomp.ff Si O
pair_coeff * * CHONSi.ff C H O Si
# pair_coeff * * CHOFe.ff O Si

fix myqeq all qeq/reaxff 1 0.0 10.0 1.0e-6 reaxff maxiter 400
fix bondinfo all reaxff/bonds 100 bonds.reaxff

neighbor        2 bin
neigh_modify    every 10 delay 0 check no

# Print system info
thermo          100
thermo_style    custom step temp press density pe etotal

# Energy minimization
print "*****Minimization starts.*****"
*****Minimization starts.*****
fix min1 all nve
minimize 1.0e-6 1.0e-6 100 1000

CITE-CITE-CITE-CITE-CITE-CITE-CITE-CITE-CITE-CITE-CITE-CITE-CITE

Your simulation uses code contributions which should be cited:

- pair reaxff command: doi:10.1016/j.parco.2011.08.005

@Article{Aktulga12,
 author = {H. M. Aktulga and J. C. Fogarty and S. A. Pandit and A. Y. Grama},
 title = {Parallel Reactive Molecular Dynamics: {N}umerical Methods and Algorithmic Techniques},
 journal = {Parallel Computing},
 year =    2012,
 volume =  38,
 number =  {4--5},
 pages =   {245--259}
}

- fix qeq/reaxff command: doi:10.1016/j.parco.2011.08.005

@Article{Aktulga12,
 author = {H. M. Aktulga and J. C. Fogarty and S. A. Pandit and A. Y. Grama},
 title = {Parallel Reactive Molecular Dynamics: {N}umerical Methods and Algorithmic Techniques},
 journal = {Parallel Computing},
 year =    2012,
 volume =  38,
 pages =   {245--259}
}

CITE-CITE-CITE-CITE-CITE-CITE-CITE-CITE-CITE-CITE-CITE-CITE-CITE

Step          Temp          Press         Density         PotEng         TotEng
0   0              102227         1.701333      -40992.445     -40992.445
Loop time of 46.2312 on 1 procs for 44 steps with 365 atoms

Minimization stats:
  Stopping criterion = energy tolerance
  Energy initial, next-to-last, final =
  Force two-norm initial, final = 1971.707 165.89936
  Force max component initial, final = 264.46162 63.907867
  Final line search alpha, max atom move = 0.0017822071 0.11389706
  Iterations, force evaluations = 44 116

unfix min1
# Save the optimized structure
write_data 333U-50C-33-vasp_opt.data
System init for write_data ...

reset_timestep 0
# Save trajectory
#dump dump1 all custom 500 dump_opt.lammpstrj id type x y z q
dump dump1 all custom 100 dump_all.lammpstrj   id   type   x   y   z   q

# equilibration at low T
print "*****Equilibration starts.*****"
*****Equilibration starts.*****
velocity        all create 300 12345
fix             equil1 all npt temp 300 300 50 tri 1 1 500
# 1 ps : 1e3 fs / 0.5 fs = 2e3 steps
run             5000
Step          Temp          Press         Density         PotEng         TotEng
0   300            9716.0993      1.701333      -42415.906     -42090.402
Averages over the last 26 of 51 rows, steps 2500 to 5000:
Temp Press Density PotEng TotEng
301.463 2126.57 1.70391 -42655.4 -42328.3
Loop time of 2047.2 on 1 procs for 5000 steps with 365 atoms

# Heat to high T
print "*****Heat starts.*****"
*****Heat starts.*****
unfix           equil1
fix             heat1 all nvt temp 300 2200 50
# 1 ps : 1e3 fs / 0.5 fs = 2e3 steps
run             2000
Step          Temp          Press         Density         PotEng         TotEng
5000   312.39527      9585.0097      1.6913295     -42679.166     -42340.212
Averages over the last 11 of 21 rows, steps 6000 to 7000:
Temp Press Density PotEng TotEng
1693.33 12312.3 1.69133 -40849 -39011.7
Loop time of 838.42 on 1 procs for 2000 steps with 365 atoms

# middle equilibration at high T
print "*****Middle equilibration starts.*****"
*****Middle equilibration starts.*****
velocity        all create 300 12345
unfix             heat1
fix             equil2 all nvt temp 2200 2200 50
# 1 ps : 1e3 fs / 0.5 fs = 2e3 steps

# cool down to low T
print "*****Cool starts.*****"
*****Cool starts.*****
unfix           equil2
fix             cool1 all nvt temp 2200 300 50
# 1 ps : 1e3 fs / 0.5 fs = 2e3 steps
run             10000
Step          Temp          Press         Density         PotEng         TotEng
7000   300            25761.607      1.6913295     -40056.961     -39731.456
Averages over the last 51 of 101 rows, steps 12000 to 17000:
Temp Press Density PotEng TotEng
783.951 9824.89 1.69133 -42155.9 -41305.3
Loop time of 4231.82 on 1 procs for 10000 steps with 365 atoms

# final equilibration at low T
print "*****final equilibration starts.*****"
*****final equilibration starts.*****
unfix             cool1
fix             equil3 all npt temp 300 300 50 tri 1 1 500
# 1 ps : 1e3 fs / 0.5 fs = 2e3 steps
run             5000
Step          Temp          Press         Density         PotEng         TotEng
17000   326.05776     -27.573289      1.6913295     -42770.311     -42416.534
Averages over the last 26 of 51 rows, steps 19500 to 22000:
Temp Press Density PotEng TotEng
300.828 -2218.77 1.68628 -42798.5 -42472.1
Loop time of 1867.54 on 1 procs for 5000 steps with 365 atoms

write_data  333U-50C-33-vasp-an.data
System init for write_data ...
