LAMMPS (2 Aug 2023 - Update 2)
# Initialization
units           real
dimension       3
boundary        p p p
atom_style      full
timestep        0.5   # fs

# Define MD parameters
variable nevery equal 10                  # sampling interval
variable nrepeat equal 10                 # number of samples
variable nthermo equal 10*10
variable nfreq equal 100
# 1 ps : 1e3 fs / 0.5 fs = 2e3 steps
variable nequil equal 20*100
variable nrun equal 20*100
variable temp equal 300.0                # temperature of initial sample
variable tdamp equal 50.0                 # time constant for thermostat
variable seed equal 123457                # seed for thermostat
variable ufac equal 1.01325e-4         # pressure unit conversion, from atm to Gpa
variable up equal 0.01                  # the deformation magnitude 2.0e-2

# Read the initial sctructure
# box tilt large
variable structure string 333U-50C-20-vasp-an
read_data       333U-50C-20-vasp-an.data
Reading data file ...
  triclinic box = (0.0027304142 0.27420022 -0.21607667) to (15.23547 14.2286 17.224577) with tilt (-6.785986 -0.0099033092 -1.1965688)
  reading atoms ...
  350 atoms
  reading velocities ...
  350 velocities
Finding 1-2 1-3 1-4 neighbors ...
     0 = max # of 1-2 neighbors
     0 = max # of 1-3 neighbors
     0 = max # of 1-4 neighbors
     1 = max # of special neighbors

# Energy minimization
print "*****Minimization starts.*****"
*****Minimization starts.*****
velocity        all create 300 123457 dist gaussian
minimize 1.0e-6 1.0e-6 100 1000
Step          Temp          E_pair         E_mol          TotEng         Press
0   300            0              0              312.09081      3848.238
Loop time of 4.52693e-05 on 8 procs for 1 steps with 350 atoms

Minimization stats:
  Stopping criterion = search direction is not downhill
  Energy initial, next-to-last, final =
  Force two-norm initial, final = 0 0
  Force max component initial, final = 0 0
  Final line search alpha, max atom move = 0 0
  Iterations, force evaluations = 1 0

min_style cg

# Equilibration
include ff.mod.lmp
# Setup forcefield, system
# undefine any fix ave/* fix before using reset_timestep
if "$(is_defined(fix,avgp))" then "unfix avgp"
reset_timestep 0

# Assign the force field
pair_style reaxff NULL safezone 3.0 mincap 150
# pair_coeff * * CHONSSi.ff O Si
# pair_coeff * * CHOSiNa.ff O Si
# pair_coeff * * SiOCHN_2018.ff O Si
# pair_coeff * * PDMSDecomp.ff Si O
pair_coeff * * CHONSi.ff C H O Si
# pair_coeff * * CHOFe.ff O Si

# charge method for reaxff
fix myqeq all qeq/reaxff 1 0.0 10.0 1.0e-6 reaxff maxiter 400
# Setup neighbor style
neighbor        2 bin
neigh_modify    every 10 delay 0 check no

# Setup output
fix avgp all ave/time  10 10 100 c_thermo_press mode vector
thermo		100
thermo_style custom step temp pe press f_avgp[1] vol
thermo_modify norm no

# NVT
fix 4 all nvt temp 300 300 50
thermo_style custom step temp pe press f_avgp[1] density vol
run 2000

CITE-CITE-CITE-CITE-CITE-CITE-CITE-CITE-CITE-CITE-CITE-CITE-CITE

Your simulation uses code contributions which should be cited:

- pair reaxff command: doi:10.1016/j.parco.2011.08.005

@Article{Aktulga12,
 author = {H. M. Aktulga and J. C. Fogarty and S. A. Pandit and A. Y. Grama},
 title = {Parallel Reactive Molecular Dynamics: {N}umerical Methods and Algorithmic Techniques},
 journal = {Parallel Computing},
 year =    2012,
 volume =  38,
 number =  {4--5},
 pages =   {245--259}
}

- fix qeq/reaxff command: doi:10.1016/j.parco.2011.08.005

@Article{Aktulga12,
 author = {H. M. Aktulga and J. C. Fogarty and S. A. Pandit and A. Y. Grama},
 title = {Parallel Reactive Molecular Dynamics: {N}umerical Methods and Algorithmic Techniques},
 journal = {Parallel Computing},
 year =    2012,
 volume =  38,
 pages =   {245--259}
}

CITE-CITE-CITE-CITE-CITE-CITE-CITE-CITE-CITE-CITE-CITE-CITE-CITE

Step          Temp          PotEng         Press        f_avgp[1]       Density         Volume
0   300           -41311.099      4640.9413      0              1.7519016      3707.2503
Averages over the last 11 of 21 rows, steps 1000 to 2000:
Temp PotEng Press f_avgp[1] Density Volume
292.997 -41296 -965.12 -78.7863 1.7519 3707.25
Loop time of 103.737 on 8 procs for 2000 steps with 350 atoms

# Save the optimized structure
write_data 333U-50C-20-vasp-an_opt.data
System init for write_data ...

# Save initial pressure, box size
variable pxx0 equal f_avgp[1]
variable pyy0 equal f_avgp[2]
variable pzz0 equal f_avgp[3]
variable pxy0 equal f_avgp[4]
variable pxz0 equal f_avgp[5]
variable pyz0 equal f_avgp[6]

# use tmp to save initial box length
variable tmp equal lx
variable lx0 equal 15.2327391715384
variable tmp equal ly
variable ly0 equal 13.9543995646043
variable tmp equal lz
variable lz0 equal 17.4406533464764

# define the derivatives, w.r.t. strain tensor
# Constants uses $, variables use v_
variable d1 equal -(v_pxx1--301.671828312068)/(v_delta/v_len0)*0.000101325
variable d2 equal -(v_pyy1--34.9756190009851)/(v_delta/v_len0)*0.000101325
variable d3 equal -(v_pzz1-1165.99130694546)/(v_delta/v_len0)*0.000101325
variable d4 equal -(v_pyz1--2010.96675104456)/(v_delta/v_len0)*0.000101325*0.5
variable d5 equal -(v_pxz1--972.644438149298)/(v_delta/v_len0)*0.000101325*0.5
variable d6 equal -(v_pxy1-1709.57819777912)/(v_delta/v_len0)*0.000101325*0.5

# Write restart
write_restart equil.res
System init for write_restart ...

# dir: direction
# uxx Perturbation
variable dir equal 1
include displace.mod.lmp
# Find which reference length to use
variable len0 equal 15.2327391715384

# Reset box and simulation parameters
clear
# box tilt large
read_restart equil.res
Reading restart file ...
  restart file = 2 Aug 2023, LAMMPS = 2 Aug 2023
  restoring atom style full from restart
  triclinic box = (0.0027304142 0.27420022 -0.21607667) to (15.23547 14.2286 17.224577) with tilt (-6.785986 -0.0099033092 -1.1965688)
  pair style reaxff stores no restart info
  350 atoms
Finding 1-2 1-3 1-4 neighbors ...
     0 = max # of 1-2 neighbors
     0 = max # of 1-3 neighbors
     0 = max # of 1-4 neighbors
     1 = max # of special neighbors
  read_restart CPU = 0.003 seconds
*****Negative-change 1 starts.*****
include ff.mod.lmp
# Setup forcefield, system
# undefine any fix ave/* fix before using reset_timestep
if "$(is_defined(fix,avgp))" then "unfix avgp"
reset_timestep 0

# Assign the force field
pair_style reaxff NULL safezone 3.0 mincap 150
# pair_coeff * * CHONSSi.ff O Si
# pair_coeff * * CHOSiNa.ff O Si
# pair_coeff * * SiOCHN_2018.ff O Si
# pair_coeff * * PDMSDecomp.ff Si O
pair_coeff * * CHONSi.ff C H O Si
# pair_coeff * * CHOFe.ff O Si

# charge method for reaxff
fix myqeq all qeq/reaxff 1 0.0 10.0 1.0e-6 reaxff maxiter 400
# Setup neighbor style
neighbor        2 bin
neigh_modify    every 10 delay 0 check no

# Setup output
fix avgp all ave/time  10 10 100 c_thermo_press mode vector
thermo		100
thermo_style custom step temp pe press f_avgp[1] vol
thermo_modify norm no

# NVT
fix 4 all nvt temp 300 300 50
  fix style: nvt, fix ID: 4

# Negative deformation
variable delta equal -0.01*15.2327391715384
variable deltaxy equal -0.01*xy
variable deltaxz equal -0.01*xz
variable deltayz equal -0.01*yz
change_box all x delta 0 -0.152327391715384 xy delta 0.0678598602577393 xz delta 9.90330916854881e-05 remap units box
Changing box ...
  triclinic box = (0.0027304142 0.27420022 -0.21607667) to (15.083142 14.2286 17.224577) with tilt (-6.785986 -0.0099033092 -1.1965688)
  triclinic box = (0.0027304142 0.27420022 -0.21607667) to (15.083142 14.2286 17.224577) with tilt (-6.7181262 -0.0099033092 -1.1965688)
  triclinic box = (0.0027304142 0.27420022 -0.21607667) to (15.083142 14.2286 17.224577) with tilt (-6.7181262 -0.0098042761 -1.1965688)

# Run MD for Negative deformation
# save trajectory
dump dump_neg1 all custom 100 dump/neg_deform1.lammpstrj id type x y z
run 2000
All restart file global fix info was re-assigned
Step          Temp          PotEng         Press        f_avgp[1]        Volume
0   280.35332     -41265.387      56997.116      0              3670.1778
Averages over the last 11 of 21 rows, steps 1000 to 2000:
Temp PotEng Press f_avgp[1] Volume
296.251 -41306.7 1162.51 5932.56 3670.18
Loop time of 104.678 on 8 procs for 2000 steps with 350 atoms

undump dump_neg1

# Run equilibration
*****Equilibration neg1 starts.*****
include ff.mod.lmp
# Setup forcefield, system
# undefine any fix ave/* fix before using reset_timestep
if "$(is_defined(fix,avgp))" then "unfix avgp"
unfix avgp
reset_timestep 0

# Assign the force field
pair_style reaxff NULL safezone 3.0 mincap 150
# pair_coeff * * CHONSSi.ff O Si
# pair_coeff * * CHOSiNa.ff O Si
# pair_coeff * * SiOCHN_2018.ff O Si
# pair_coeff * * PDMSDecomp.ff Si O
pair_coeff * * CHONSi.ff C H O Si
# pair_coeff * * CHOFe.ff O Si

# charge method for reaxff
fix myqeq all qeq/reaxff 1 0.0 10.0 1.0e-6 reaxff maxiter 400
# Setup neighbor style
neighbor        2 bin
neigh_modify    every 10 delay 0 check no

# Setup output
fix avgp all ave/time  10 10 100 c_thermo_press mode vector
thermo		100
thermo_style custom step temp pe press f_avgp[1] vol
thermo_modify norm no

# NVT
fix 4 all nvt temp 300 300 50
run 2000
Step          Temp          PotEng         Press        f_avgp[1]        Volume
0   299.82208     -41312.469      6186.6415      0              3670.1778
Averages over the last 11 of 21 rows, steps 1000 to 2000:
Temp PotEng Press f_avgp[1] Volume
303.107 -41297.9 9249.24 6761.99 3670.18
Loop time of 105.024 on 8 procs for 2000 steps with 350 atoms

# Obtain new stress tensor Negative deformation, convert index from LAMMPS to Voigt
variable pxx1 equal f_avgp[1]
variable pyy1 equal f_avgp[2]
variable pzz1 equal f_avgp[3]
variable pxy1 equal f_avgp[4]
variable pxz1 equal f_avgp[5]
variable pyz1 equal f_avgp[6]

# Compute elastic constant from pressure
# d1 = -[pxx1-pxx0]/[(]v_delta/v_len0] defined in input script
variable C1neg equal 112.214904862
variable C2neg equal 37.859018771555
variable C3neg equal 67.4108671692712
variable C4neg equal -0.224591223165409
variable C5neg equal -23.8644157168966
variable C6neg equal -4.7904260483055

# Reset box and simulation parameters
clear
# box tilt large
read_restart equil.res
Reading restart file ...
  restart file = 2 Aug 2023, LAMMPS = 2 Aug 2023
  restoring atom style full from restart
  triclinic box = (0.0027304142 0.27420022 -0.21607667) to (15.23547 14.2286 17.224577) with tilt (-6.785986 -0.0099033092 -1.1965688)
  pair style reaxff stores no restart info
  350 atoms
Finding 1-2 1-3 1-4 neighbors ...
     0 = max # of 1-2 neighbors
     0 = max # of 1-3 neighbors
     0 = max # of 1-4 neighbors
     1 = max # of special neighbors
  read_restart CPU = 0.004 seconds
*****Positive-change 1 starts.*****
include ff.mod.lmp
# Setup forcefield, system
# undefine any fix ave/* fix before using reset_timestep
if "$(is_defined(fix,avgp))" then "unfix avgp"
reset_timestep 0

# Assign the force field
pair_style reaxff NULL safezone 3.0 mincap 150
# pair_coeff * * CHONSSi.ff O Si
# pair_coeff * * CHOSiNa.ff O Si
# pair_coeff * * SiOCHN_2018.ff O Si
# pair_coeff * * PDMSDecomp.ff Si O
pair_coeff * * CHONSi.ff C H O Si
# pair_coeff * * CHOFe.ff O Si

# charge method for reaxff
fix myqeq all qeq/reaxff 1 0.0 10.0 1.0e-6 reaxff maxiter 400
# Setup neighbor style
neighbor        2 bin
neigh_modify    every 10 delay 0 check no

# Setup output
fix avgp all ave/time  10 10 100 c_thermo_press mode vector
thermo		100
thermo_style custom step temp pe press f_avgp[1] vol
thermo_modify norm no

# NVT
fix 4 all nvt temp 300 300 50
  fix style: nvt, fix ID: 4

# Positive deformation
variable delta equal 0.01*15.2327391715384
variable deltaxy equal 0.01*xy
variable deltaxz equal 0.01*xz
variable deltayz equal 0.01*yz
change_box all x delta 0 0.152327391715384 xy delta -0.0678598602577393 xz delta -9.90330916854881e-05 remap units box
Changing box ...
  triclinic box = (0.0027304142 0.27420022 -0.21607667) to (15.387797 14.2286 17.224577) with tilt (-6.785986 -0.0099033092 -1.1965688)
  triclinic box = (0.0027304142 0.27420022 -0.21607667) to (15.387797 14.2286 17.224577) with tilt (-6.8538459 -0.0099033092 -1.1965688)
  triclinic box = (0.0027304142 0.27420022 -0.21607667) to (15.387797 14.2286 17.224577) with tilt (-6.8538459 -0.010002342 -1.1965688)

# Run positive deformation MD
# save trajectory
dump dump_pos1 all custom 100 dump/pos_deform1.lammpstrj id type x y z
run 2000
All restart file global fix info was re-assigned
Step          Temp          PotEng         Press        f_avgp[1]        Volume
0   280.35332     -41271.37      -43583.361      0              3744.3228
Averages over the last 11 of 21 rows, steps 1000 to 2000:
Temp PotEng Press f_avgp[1] Volume
300.937 -41284.7 -214.373 -3139.97 3744.32
Loop time of 101.427 on 8 procs for 2000 steps with 350 atoms

undump dump_pos1

# Run equilibration
*****Equilibration pos1 starts.*****
include ff.mod.lmp
# Setup forcefield, system
# undefine any fix ave/* fix before using reset_timestep
if "$(is_defined(fix,avgp))" then "unfix avgp"
unfix avgp
reset_timestep 0

# Assign the force field
pair_style reaxff NULL safezone 3.0 mincap 150
# pair_coeff * * CHONSSi.ff O Si
# pair_coeff * * CHOSiNa.ff O Si
# pair_coeff * * SiOCHN_2018.ff O Si
# pair_coeff * * PDMSDecomp.ff Si O
pair_coeff * * CHONSi.ff C H O Si
# pair_coeff * * CHOFe.ff O Si

# charge method for reaxff
fix myqeq all qeq/reaxff 1 0.0 10.0 1.0e-6 reaxff maxiter 400
# Setup neighbor style
neighbor        2 bin
neigh_modify    every 10 delay 0 check no

# Setup output
fix avgp all ave/time  10 10 100 c_thermo_press mode vector
thermo		100
thermo_style custom step temp pe press f_avgp[1] vol
thermo_modify norm no

# NVT
fix 4 all nvt temp 300 300 50
run 2000
Step          Temp          PotEng         Press        f_avgp[1]        Volume
0   294.85309     -41304.959     -2522.231       0              3744.3228
Averages over the last 11 of 21 rows, steps 1000 to 2000:
Temp PotEng Press f_avgp[1] Volume
298.376 -41282.6 -4224.15 -5183.07 3744.32
Loop time of 101.34 on 8 procs for 2000 steps with 350 atoms

# Obtain new stress tensor, convert index from LAMMPS to Voigt
variable pxx1 equal f_avgp[1]
variable pyy1 equal f_avgp[2]
variable pzz1 equal f_avgp[3]
variable pxy1 equal f_avgp[4]
variable pxz1 equal f_avgp[5]
variable pyz1 equal f_avgp[6]

# Compute elastic constant from pressure tensor
# d1 = -[pxx1-pxx0]/[(]v_delta/v_len0] defined in input script
variable C1pos equal 64.2711796061726
variable C2pos equal -26.5761974782318
variable C3pos equal 44.4623801267883
variable C4pos equal -3.99661481091081
variable C5pos equal -14.6639819378901
variable C6pos equal 1.7112842473625

# Combine positive and negative
variable C11 equal 0.5*(112.214904862+64.2711796061726)
variable C21 equal 0.5*(37.859018771555+-26.5761974782318)
variable C31 equal 0.5*(67.4108671692712+44.4623801267883)
variable C41 equal 0.5*(-0.224591223165409+-3.99661481091081)
variable C51 equal 0.5*(-23.8644157168966+-14.6639819378901)
variable C61 equal 0.5*(-4.7904260483055+1.7112842473625)

# Delete dir to make sure it is not reused
variable dir delete
# uyy Perturbation
variable dir equal 2
include displace.mod.lmp
# Find which reference length to use
variable len0 equal 13.9543995646043

# Reset box and simulation parameters
clear
# box tilt large
read_restart equil.res
Reading restart file ...
  restart file = 2 Aug 2023, LAMMPS = 2 Aug 2023
  restoring atom style full from restart
  triclinic box = (0.0027304142 0.27420022 -0.21607667) to (15.23547 14.2286 17.224577) with tilt (-6.785986 -0.0099033092 -1.1965688)
  pair style reaxff stores no restart info
  350 atoms
Finding 1-2 1-3 1-4 neighbors ...
     0 = max # of 1-2 neighbors
     0 = max # of 1-3 neighbors
     0 = max # of 1-4 neighbors
     1 = max # of special neighbors
  read_restart CPU = 0.004 seconds
*****Negative-change 2 starts.*****
include ff.mod.lmp
# Setup forcefield, system
# undefine any fix ave/* fix before using reset_timestep
if "$(is_defined(fix,avgp))" then "unfix avgp"
reset_timestep 0

# Assign the force field
pair_style reaxff NULL safezone 3.0 mincap 150
# pair_coeff * * CHONSSi.ff O Si
# pair_coeff * * CHOSiNa.ff O Si
# pair_coeff * * SiOCHN_2018.ff O Si
# pair_coeff * * PDMSDecomp.ff Si O
pair_coeff * * CHONSi.ff C H O Si
# pair_coeff * * CHOFe.ff O Si

# charge method for reaxff
fix myqeq all qeq/reaxff 1 0.0 10.0 1.0e-6 reaxff maxiter 400
# Setup neighbor style
neighbor        2 bin
neigh_modify    every 10 delay 0 check no

# Setup output
fix avgp all ave/time  10 10 100 c_thermo_press mode vector
thermo		100
thermo_style custom step temp pe press f_avgp[1] vol
thermo_modify norm no

# NVT
fix 4 all nvt temp 300 300 50
  fix style: nvt, fix ID: 4

# Negative deformation
variable delta equal -0.01*13.9543995646043
variable deltaxy equal -0.01*xy
variable deltaxz equal -0.01*xz
variable deltayz equal -0.01*yz
change_box all y delta 0 -0.139543995646043 yz delta 0.0119656875307777 remap units box
Changing box ...
  triclinic box = (0.0027304142 0.27420022 -0.21607667) to (15.23547 14.089056 17.224577) with tilt (-6.785986 -0.0099033092 -1.1965688)
  triclinic box = (0.0027304142 0.27420022 -0.21607667) to (15.23547 14.089056 17.224577) with tilt (-6.785986 -0.0099033092 -1.1846031)

# Run MD for Negative deformation
# save trajectory
dump dump_neg2 all custom 100 dump/neg_deform2.lammpstrj id type x y z
run 2000
All restart file global fix info was re-assigned
Step          Temp          PotEng         Press        f_avgp[1]        Volume
0   280.35332     -41268.94       61619.426      0              3670.1778
Averages over the last 11 of 21 rows, steps 1000 to 2000:
Temp PotEng Press f_avgp[1] Volume
301.383 -41294.4 2345.07 6159.8 3670.18
Loop time of 104.711 on 8 procs for 2000 steps with 350 atoms

undump dump_neg2

# Run equilibration
*****Equilibration neg2 starts.*****
include ff.mod.lmp
# Setup forcefield, system
# undefine any fix ave/* fix before using reset_timestep
if "$(is_defined(fix,avgp))" then "unfix avgp"
unfix avgp
reset_timestep 0

# Assign the force field
pair_style reaxff NULL safezone 3.0 mincap 150
# pair_coeff * * CHONSSi.ff O Si
# pair_coeff * * CHOSiNa.ff O Si
# pair_coeff * * SiOCHN_2018.ff O Si
# pair_coeff * * PDMSDecomp.ff Si O
pair_coeff * * CHONSi.ff C H O Si
# pair_coeff * * CHOFe.ff O Si

# charge method for reaxff
fix myqeq all qeq/reaxff 1 0.0 10.0 1.0e-6 reaxff maxiter 400
# Setup neighbor style
neighbor        2 bin
neigh_modify    every 10 delay 0 check no

# Setup output
fix avgp all ave/time  10 10 100 c_thermo_press mode vector
thermo		100
thermo_style custom step temp pe press f_avgp[1] vol
thermo_modify norm no

# NVT
fix 4 all nvt temp 300 300 50
run 2000
Step          Temp          PotEng         Press        f_avgp[1]        Volume
0   294.61022     -41283.277      4818.2579      0              3670.1778
Averages over the last 11 of 21 rows, steps 1000 to 2000:
Temp PotEng Press f_avgp[1] Volume
301.04 -41314.3 5005.44 979.316 3670.18
Loop time of 104.525 on 8 procs for 2000 steps with 350 atoms

# Obtain new stress tensor Negative deformation, convert index from LAMMPS to Voigt
variable pxx1 equal f_avgp[1]
variable pyy1 equal f_avgp[2]
variable pzz1 equal f_avgp[3]
variable pxy1 equal f_avgp[4]
variable pxz1 equal f_avgp[5]
variable pyz1 equal f_avgp[6]

# Compute elastic constant from pressure
# d1 = -[pxx1-pxx0]/[(]v_delta/v_len0] defined in input script
variable C1neg equal 24.9189015543691
variable C2neg equal 52.4739639351088
variable C3neg equal 32.0648162140556
variable C4neg equal -0.897203204263848
variable C5neg equal 15.7247407148175
variable C6neg equal 0.149162407667971

# Reset box and simulation parameters
clear
# box tilt large
read_restart equil.res
Reading restart file ...
  restart file = 2 Aug 2023, LAMMPS = 2 Aug 2023
  restoring atom style full from restart
  triclinic box = (0.0027304142 0.27420022 -0.21607667) to (15.23547 14.2286 17.224577) with tilt (-6.785986 -0.0099033092 -1.1965688)
  pair style reaxff stores no restart info
  350 atoms
Finding 1-2 1-3 1-4 neighbors ...
     0 = max # of 1-2 neighbors
     0 = max # of 1-3 neighbors
     0 = max # of 1-4 neighbors
     1 = max # of special neighbors
  read_restart CPU = 0.003 seconds
*****Positive-change 2 starts.*****
include ff.mod.lmp
# Setup forcefield, system
# undefine any fix ave/* fix before using reset_timestep
if "$(is_defined(fix,avgp))" then "unfix avgp"
reset_timestep 0

# Assign the force field
pair_style reaxff NULL safezone 3.0 mincap 150
# pair_coeff * * CHONSSi.ff O Si
# pair_coeff * * CHOSiNa.ff O Si
# pair_coeff * * SiOCHN_2018.ff O Si
# pair_coeff * * PDMSDecomp.ff Si O
pair_coeff * * CHONSi.ff C H O Si
# pair_coeff * * CHOFe.ff O Si

# charge method for reaxff
fix myqeq all qeq/reaxff 1 0.0 10.0 1.0e-6 reaxff maxiter 400
# Setup neighbor style
neighbor        2 bin
neigh_modify    every 10 delay 0 check no

# Setup output
fix avgp all ave/time  10 10 100 c_thermo_press mode vector
thermo		100
thermo_style custom step temp pe press f_avgp[1] vol
thermo_modify norm no

# NVT
fix 4 all nvt temp 300 300 50
  fix style: nvt, fix ID: 4

# Positive deformation
variable delta equal 0.01*13.9543995646043
variable deltaxy equal 0.01*xy
variable deltaxz equal 0.01*xz
variable deltayz equal 0.01*yz
change_box all y delta 0 0.139543995646043 yz delta -0.0119656875307777 remap units box
Changing box ...
  triclinic box = (0.0027304142 0.27420022 -0.21607667) to (15.23547 14.368144 17.224577) with tilt (-6.785986 -0.0099033092 -1.1965688)
  triclinic box = (0.0027304142 0.27420022 -0.21607667) to (15.23547 14.368144 17.224577) with tilt (-6.785986 -0.0099033092 -1.2085344)

# Run positive deformation MD
# save trajectory
dump dump_pos2 all custom 100 dump/pos_deform2.lammpstrj id type x y z
run 2000
All restart file global fix info was re-assigned
Step          Temp          PotEng         Press        f_avgp[1]        Volume
0   280.35332     -41263.996     -44195.622      0              3744.3228
Averages over the last 11 of 21 rows, steps 1000 to 2000:
Temp PotEng Press f_avgp[1] Volume
300.709 -41301.4 2333.05 -684.209 3744.32
Loop time of 102.038 on 8 procs for 2000 steps with 350 atoms

undump dump_pos2

# Run equilibration
*****Equilibration pos2 starts.*****
include ff.mod.lmp
# Setup forcefield, system
# undefine any fix ave/* fix before using reset_timestep
if "$(is_defined(fix,avgp))" then "unfix avgp"
unfix avgp
reset_timestep 0

# Assign the force field
pair_style reaxff NULL safezone 3.0 mincap 150
# pair_coeff * * CHONSSi.ff O Si
# pair_coeff * * CHOSiNa.ff O Si
# pair_coeff * * SiOCHN_2018.ff O Si
# pair_coeff * * PDMSDecomp.ff Si O
pair_coeff * * CHONSi.ff C H O Si
# pair_coeff * * CHOFe.ff O Si

# charge method for reaxff
fix myqeq all qeq/reaxff 1 0.0 10.0 1.0e-6 reaxff maxiter 400
# Setup neighbor style
neighbor        2 bin
neigh_modify    every 10 delay 0 check no

# Setup output
fix avgp all ave/time  10 10 100 c_thermo_press mode vector
thermo		100
thermo_style custom step temp pe press f_avgp[1] vol
thermo_modify norm no

# NVT
fix 4 all nvt temp 300 300 50
run 2000
Step          Temp          PotEng         Press        f_avgp[1]        Volume
0   328.69046     -41313.262      8023.9288      0              3744.3228
Averages over the last 11 of 21 rows, steps 1000 to 2000:
Temp PotEng Press f_avgp[1] Volume
296.124 -41299.2 -2594.33 -789.709 3744.32
Loop time of 100.625 on 8 procs for 2000 steps with 350 atoms

# Obtain new stress tensor, convert index from LAMMPS to Voigt
variable pxx1 equal f_avgp[1]
variable pyy1 equal f_avgp[2]
variable pzz1 equal f_avgp[3]
variable pxy1 equal f_avgp[4]
variable pxz1 equal f_avgp[5]
variable pyz1 equal f_avgp[6]

# Compute elastic constant from pressure tensor
# d1 = -[pxx1-pxx0]/[(]v_delta/v_len0] defined in input script
variable C1pos equal -22.673944381966
variable C2pos equal 37.9348134579989
variable C3pos equal -2.09909918471323
variable C4pos equal -3.9526258635933
variable C5pos equal 4.4379866725396
variable C6pos equal -9.7246582305745

# Combine positive and negative
variable C12 equal 0.5*(24.9189015543691+-22.673944381966)
variable C22 equal 0.5*(52.4739639351088+37.9348134579989)
variable C32 equal 0.5*(32.0648162140556+-2.09909918471323)
variable C42 equal 0.5*(-0.897203204263848+-3.9526258635933)
variable C52 equal 0.5*(15.7247407148175+4.4379866725396)
variable C62 equal 0.5*(0.149162407667971+-9.7246582305745)

# Delete dir to make sure it is not reused
variable dir delete
# uzz Perturbation
variable dir equal 3
include displace.mod.lmp
# Find which reference length to use
variable len0 equal 17.4406533464764

# Reset box and simulation parameters
clear
# box tilt large
read_restart equil.res
Reading restart file ...
  restart file = 2 Aug 2023, LAMMPS = 2 Aug 2023
  restoring atom style full from restart
  triclinic box = (0.0027304142 0.27420022 -0.21607667) to (15.23547 14.2286 17.224577) with tilt (-6.785986 -0.0099033092 -1.1965688)
  pair style reaxff stores no restart info
  350 atoms
Finding 1-2 1-3 1-4 neighbors ...
     0 = max # of 1-2 neighbors
     0 = max # of 1-3 neighbors
     0 = max # of 1-4 neighbors
     1 = max # of special neighbors
  read_restart CPU = 0.002 seconds
*****Negative-change 3 starts.*****
include ff.mod.lmp
# Setup forcefield, system
# undefine any fix ave/* fix before using reset_timestep
if "$(is_defined(fix,avgp))" then "unfix avgp"
reset_timestep 0

# Assign the force field
pair_style reaxff NULL safezone 3.0 mincap 150
# pair_coeff * * CHONSSi.ff O Si
# pair_coeff * * CHOSiNa.ff O Si
# pair_coeff * * SiOCHN_2018.ff O Si
# pair_coeff * * PDMSDecomp.ff Si O
pair_coeff * * CHONSi.ff C H O Si
# pair_coeff * * CHOFe.ff O Si

# charge method for reaxff
fix myqeq all qeq/reaxff 1 0.0 10.0 1.0e-6 reaxff maxiter 400
# Setup neighbor style
neighbor        2 bin
neigh_modify    every 10 delay 0 check no

# Setup output
fix avgp all ave/time  10 10 100 c_thermo_press mode vector
thermo		100
thermo_style custom step temp pe press f_avgp[1] vol
thermo_modify norm no

# NVT
fix 4 all nvt temp 300 300 50
  fix style: nvt, fix ID: 4

# Negative deformation
variable delta equal -0.01*17.4406533464764
variable deltaxy equal -0.01*xy
variable deltaxz equal -0.01*xz
variable deltayz equal -0.01*yz
change_box all z delta 0 -0.174406533464764 remap units box
Changing box ...
  triclinic box = (0.0027304142 0.27420022 -0.21607667) to (15.23547 14.2286 17.05017) with tilt (-6.785986 -0.0099033092 -1.1965688)

# Run MD for Negative deformation
# save trajectory
dump dump_neg3 all custom 100 dump/neg_deform3.lammpstrj id type x y z
run 2000
All restart file global fix info was re-assigned
Step          Temp          PotEng         Press        f_avgp[1]        Volume
0   280.35332     -41270.194      56712.929      0              3670.1778
Averages over the last 11 of 21 rows, steps 1000 to 2000:
Temp PotEng Press f_avgp[1] Volume
289.496 -41292.9 4638.61 3092.11 3670.18
Loop time of 104.675 on 8 procs for 2000 steps with 350 atoms

undump dump_neg3

# Run equilibration
*****Equilibration neg3 starts.*****
include ff.mod.lmp
# Setup forcefield, system
# undefine any fix ave/* fix before using reset_timestep
if "$(is_defined(fix,avgp))" then "unfix avgp"
unfix avgp
reset_timestep 0

# Assign the force field
pair_style reaxff NULL safezone 3.0 mincap 150
# pair_coeff * * CHONSSi.ff O Si
# pair_coeff * * CHOSiNa.ff O Si
# pair_coeff * * SiOCHN_2018.ff O Si
# pair_coeff * * PDMSDecomp.ff Si O
pair_coeff * * CHONSi.ff C H O Si
# pair_coeff * * CHOFe.ff O Si

# charge method for reaxff
fix myqeq all qeq/reaxff 1 0.0 10.0 1.0e-6 reaxff maxiter 400
# Setup neighbor style
neighbor        2 bin
neigh_modify    every 10 delay 0 check no

# Setup output
fix avgp all ave/time  10 10 100 c_thermo_press mode vector
thermo		100
thermo_style custom step temp pe press f_avgp[1] vol
thermo_modify norm no

# NVT
fix 4 all nvt temp 300 300 50
run 2000
Step          Temp          PotEng         Press        f_avgp[1]        Volume
0   292.37687     -41285.867      4424.0333      0              3670.1778
Averages over the last 11 of 21 rows, steps 1000 to 2000:
Temp PotEng Press f_avgp[1] Volume
299.667 -41311.4 1885.68 1207.43 3670.18
Loop time of 104.455 on 8 procs for 2000 steps with 350 atoms

# Obtain new stress tensor Negative deformation, convert index from LAMMPS to Voigt
variable pxx1 equal f_avgp[1]
variable pyy1 equal f_avgp[2]
variable pzz1 equal f_avgp[3]
variable pxy1 equal f_avgp[4]
variable pxz1 equal f_avgp[5]
variable pyz1 equal f_avgp[6]

# Compute elastic constant from pressure
# d1 = -[pxx1-pxx0]/[(]v_delta/v_len0] defined in input script
variable C1neg equal 47.5245023322307
variable C2neg equal 56.6366261806098
variable C3neg equal 78.7614964503258
variable C4neg equal 12.2150953831921
variable C5neg equal -9.7958898637129
variable C6neg equal -11.0680266559052

# Reset box and simulation parameters
clear
# box tilt large
read_restart equil.res
Reading restart file ...
  restart file = 2 Aug 2023, LAMMPS = 2 Aug 2023
  restoring atom style full from restart
  triclinic box = (0.0027304142 0.27420022 -0.21607667) to (15.23547 14.2286 17.224577) with tilt (-6.785986 -0.0099033092 -1.1965688)
  pair style reaxff stores no restart info
  350 atoms
Finding 1-2 1-3 1-4 neighbors ...
     0 = max # of 1-2 neighbors
     0 = max # of 1-3 neighbors
     0 = max # of 1-4 neighbors
     1 = max # of special neighbors
  read_restart CPU = 0.003 seconds
*****Positive-change 3 starts.*****
include ff.mod.lmp
# Setup forcefield, system
# undefine any fix ave/* fix before using reset_timestep
if "$(is_defined(fix,avgp))" then "unfix avgp"
reset_timestep 0

# Assign the force field
pair_style reaxff NULL safezone 3.0 mincap 150
# pair_coeff * * CHONSSi.ff O Si
# pair_coeff * * CHOSiNa.ff O Si
# pair_coeff * * SiOCHN_2018.ff O Si
# pair_coeff * * PDMSDecomp.ff Si O
pair_coeff * * CHONSi.ff C H O Si
# pair_coeff * * CHOFe.ff O Si

# charge method for reaxff
fix myqeq all qeq/reaxff 1 0.0 10.0 1.0e-6 reaxff maxiter 400
# Setup neighbor style
neighbor        2 bin
neigh_modify    every 10 delay 0 check no

# Setup output
fix avgp all ave/time  10 10 100 c_thermo_press mode vector
thermo		100
thermo_style custom step temp pe press f_avgp[1] vol
thermo_modify norm no

# NVT
fix 4 all nvt temp 300 300 50
  fix style: nvt, fix ID: 4

# Positive deformation
variable delta equal 0.01*17.4406533464764
variable deltaxy equal 0.01*xy
variable deltaxz equal 0.01*xz
variable deltayz equal 0.01*yz
change_box all z delta 0 0.174406533464764 remap units box
Changing box ...
  triclinic box = (0.0027304142 0.27420022 -0.21607667) to (15.23547 14.2286 17.398983) with tilt (-6.785986 -0.0099033092 -1.1965688)

# Run positive deformation MD
# save trajectory
dump dump_pos3 all custom 100 dump/pos_deform3.lammpstrj id type x y z
run 2000
All restart file global fix info was re-assigned
Step          Temp          PotEng         Press        f_avgp[1]        Volume
0   280.35332     -41268.989     -42768.557      0              3744.3228
Averages over the last 11 of 21 rows, steps 1000 to 2000:
Temp PotEng Press f_avgp[1] Volume
298.938 -41288.8 -3604.8 -3074.39 3744.32
Loop time of 99.9581 on 8 procs for 2000 steps with 350 atoms

undump dump_pos3

# Run equilibration
*****Equilibration pos3 starts.*****
include ff.mod.lmp
# Setup forcefield, system
# undefine any fix ave/* fix before using reset_timestep
if "$(is_defined(fix,avgp))" then "unfix avgp"
unfix avgp
reset_timestep 0

# Assign the force field
pair_style reaxff NULL safezone 3.0 mincap 150
# pair_coeff * * CHONSSi.ff O Si
# pair_coeff * * CHOSiNa.ff O Si
# pair_coeff * * SiOCHN_2018.ff O Si
# pair_coeff * * PDMSDecomp.ff Si O
pair_coeff * * CHONSi.ff C H O Si
# pair_coeff * * CHOFe.ff O Si

# charge method for reaxff
fix myqeq all qeq/reaxff 1 0.0 10.0 1.0e-6 reaxff maxiter 400
# Setup neighbor style
neighbor        2 bin
neigh_modify    every 10 delay 0 check no

# Setup output
fix avgp all ave/time  10 10 100 c_thermo_press mode vector
thermo		100
thermo_style custom step temp pe press f_avgp[1] vol
thermo_modify norm no

# NVT
fix 4 all nvt temp 300 300 50
run 2000
Step          Temp          PotEng         Press        f_avgp[1]        Volume
0   316.70158     -41274.926      1603.1511      0              3744.3228
Averages over the last 11 of 21 rows, steps 1000 to 2000:
Temp PotEng Press f_avgp[1] Volume
307.16 -41290.1 -2540.98 -133.371 3744.32
Loop time of 100.48 on 8 procs for 2000 steps with 350 atoms

# Obtain new stress tensor, convert index from LAMMPS to Voigt
variable pxx1 equal f_avgp[1]
variable pyy1 equal f_avgp[2]
variable pzz1 equal f_avgp[3]
variable pxy1 equal f_avgp[4]
variable pxz1 equal f_avgp[5]
variable pyz1 equal f_avgp[6]

# Compute elastic constant from pressure tensor
# d1 = -[pxx1-pxx0]/[(]v_delta/v_len0] defined in input script
variable C1pos equal -44.5635916376644
variable C2pos equal 12.584753628687
variable C3pos equal 4.10623082506274
variable C4pos equal 4.05495804729929
variable C5pos equal -0.0332640679988615
variable C6pos equal 5.56364948744489

# Combine positive and negative
variable C13 equal 0.5*(47.5245023322307+-44.5635916376644)
variable C23 equal 0.5*(56.6366261806098+12.584753628687)
variable C33 equal 0.5*(78.7614964503258+4.10623082506274)
variable C43 equal 0.5*(12.2150953831921+4.05495804729929)
variable C53 equal 0.5*(-9.7958898637129+-0.0332640679988615)
variable C63 equal 0.5*(-11.0680266559052+5.56364948744489)

# Delete dir to make sure it is not reused
variable dir delete
# uyz Perturbation
variable dir equal 4
include displace.mod.lmp
# Find which reference length to use
variable len0 equal 17.4406533464764

# Reset box and simulation parameters
clear
# box tilt large
read_restart equil.res
Reading restart file ...
  restart file = 2 Aug 2023, LAMMPS = 2 Aug 2023
  restoring atom style full from restart
  triclinic box = (0.0027304142 0.27420022 -0.21607667) to (15.23547 14.2286 17.224577) with tilt (-6.785986 -0.0099033092 -1.1965688)
  pair style reaxff stores no restart info
  350 atoms
Finding 1-2 1-3 1-4 neighbors ...
     0 = max # of 1-2 neighbors
     0 = max # of 1-3 neighbors
     0 = max # of 1-4 neighbors
     1 = max # of special neighbors
  read_restart CPU = 0.003 seconds
*****Negative-change 4 starts.*****
include ff.mod.lmp
# Setup forcefield, system
# undefine any fix ave/* fix before using reset_timestep
if "$(is_defined(fix,avgp))" then "unfix avgp"
reset_timestep 0

# Assign the force field
pair_style reaxff NULL safezone 3.0 mincap 150
# pair_coeff * * CHONSSi.ff O Si
# pair_coeff * * CHOSiNa.ff O Si
# pair_coeff * * SiOCHN_2018.ff O Si
# pair_coeff * * PDMSDecomp.ff Si O
pair_coeff * * CHONSi.ff C H O Si
# pair_coeff * * CHOFe.ff O Si

# charge method for reaxff
fix myqeq all qeq/reaxff 1 0.0 10.0 1.0e-6 reaxff maxiter 400
# Setup neighbor style
neighbor        2 bin
neigh_modify    every 10 delay 0 check no

# Setup output
fix avgp all ave/time  10 10 100 c_thermo_press mode vector
thermo		100
thermo_style custom step temp pe press f_avgp[1] vol
thermo_modify norm no

# NVT
fix 4 all nvt temp 300 300 50
  fix style: nvt, fix ID: 4

# Negative deformation
variable delta equal -0.01*17.4406533464764
variable deltaxy equal -0.01*xy
variable deltaxz equal -0.01*xz
variable deltayz equal -0.01*yz
change_box all yz delta -0.174406533464764 remap units box
Changing box ...
  triclinic box = (0.0027304142 0.27420022 -0.21607667) to (15.23547 14.2286 17.224577) with tilt (-6.785986 -0.0099033092 -1.3709753)

# Run MD for Negative deformation
# save trajectory
dump dump_neg4 all custom 100 dump/neg_deform4.lammpstrj id type x y z
run 2000
All restart file global fix info was re-assigned
Step          Temp          PotEng         Press        f_avgp[1]        Volume
0   280.35332     -41283.489      2605.5319      0              3707.2503
Averages over the last 11 of 21 rows, steps 1000 to 2000:
Temp PotEng Press f_avgp[1] Volume
306.171 -41293.7 -1414.36 -630.893 3707.25
Loop time of 102.355 on 8 procs for 2000 steps with 350 atoms

undump dump_neg4

# Run equilibration
*****Equilibration neg4 starts.*****
include ff.mod.lmp
# Setup forcefield, system
# undefine any fix ave/* fix before using reset_timestep
if "$(is_defined(fix,avgp))" then "unfix avgp"
unfix avgp
reset_timestep 0

# Assign the force field
pair_style reaxff NULL safezone 3.0 mincap 150
# pair_coeff * * CHONSSi.ff O Si
# pair_coeff * * CHOSiNa.ff O Si
# pair_coeff * * SiOCHN_2018.ff O Si
# pair_coeff * * PDMSDecomp.ff Si O
pair_coeff * * CHONSi.ff C H O Si
# pair_coeff * * CHOFe.ff O Si

# charge method for reaxff
fix myqeq all qeq/reaxff 1 0.0 10.0 1.0e-6 reaxff maxiter 400
# Setup neighbor style
neighbor        2 bin
neigh_modify    every 10 delay 0 check no

# Setup output
fix avgp all ave/time  10 10 100 c_thermo_press mode vector
thermo		100
thermo_style custom step temp pe press f_avgp[1] vol
thermo_modify norm no

# NVT
fix 4 all nvt temp 300 300 50
run 2000
Step          Temp          PotEng         Press        f_avgp[1]        Volume
0   296.09471     -41294.863     -4649.7996      0              3707.2503
Averages over the last 11 of 21 rows, steps 1000 to 2000:
Temp PotEng Press f_avgp[1] Volume
301.959 -41305.2 -183.28 -1164.92 3707.25
Loop time of 101.134 on 8 procs for 2000 steps with 350 atoms

# Obtain new stress tensor Negative deformation, convert index from LAMMPS to Voigt
variable pxx1 equal f_avgp[1]
variable pyy1 equal f_avgp[2]
variable pzz1 equal f_avgp[3]
variable pxy1 equal f_avgp[4]
variable pxz1 equal f_avgp[5]
variable pyz1 equal f_avgp[6]

# Compute elastic constant from pressure
# d1 = -[pxx1-pxx0]/[(]v_delta/v_len0] defined in input script
variable C1neg equal 11.4010754956779
variable C2neg equal 4.88235541210741
variable C3neg equal -14.1102407257907
variable C4neg equal 10.7549461678096
variable C5neg equal 1.34545831420346
variable C6neg equal -3.50397165740402

# Reset box and simulation parameters
clear
# box tilt large
read_restart equil.res
Reading restart file ...
  restart file = 2 Aug 2023, LAMMPS = 2 Aug 2023
  restoring atom style full from restart
  triclinic box = (0.0027304142 0.27420022 -0.21607667) to (15.23547 14.2286 17.224577) with tilt (-6.785986 -0.0099033092 -1.1965688)
  pair style reaxff stores no restart info
  350 atoms
Finding 1-2 1-3 1-4 neighbors ...
     0 = max # of 1-2 neighbors
     0 = max # of 1-3 neighbors
     0 = max # of 1-4 neighbors
     1 = max # of special neighbors
  read_restart CPU = 0.003 seconds
*****Positive-change 4 starts.*****
include ff.mod.lmp
# Setup forcefield, system
# undefine any fix ave/* fix before using reset_timestep
if "$(is_defined(fix,avgp))" then "unfix avgp"
reset_timestep 0

# Assign the force field
pair_style reaxff NULL safezone 3.0 mincap 150
# pair_coeff * * CHONSSi.ff O Si
# pair_coeff * * CHOSiNa.ff O Si
# pair_coeff * * SiOCHN_2018.ff O Si
# pair_coeff * * PDMSDecomp.ff Si O
pair_coeff * * CHONSi.ff C H O Si
# pair_coeff * * CHOFe.ff O Si

# charge method for reaxff
fix myqeq all qeq/reaxff 1 0.0 10.0 1.0e-6 reaxff maxiter 400
# Setup neighbor style
neighbor        2 bin
neigh_modify    every 10 delay 0 check no

# Setup output
fix avgp all ave/time  10 10 100 c_thermo_press mode vector
thermo		100
thermo_style custom step temp pe press f_avgp[1] vol
thermo_modify norm no

# NVT
fix 4 all nvt temp 300 300 50
  fix style: nvt, fix ID: 4

# Positive deformation
variable delta equal 0.01*17.4406533464764
variable deltaxy equal 0.01*xy
variable deltaxz equal 0.01*xz
variable deltayz equal 0.01*yz
change_box all yz delta 0.174406533464764 remap units box
Changing box ...
  triclinic box = (0.0027304142 0.27420022 -0.21607667) to (15.23547 14.2286 17.224577) with tilt (-6.785986 -0.0099033092 -1.0221622)

# Run positive deformation MD
# save trajectory
dump dump_pos4 all custom 100 dump/pos_deform4.lammpstrj id type x y z
run 2000
All restart file global fix info was re-assigned
Step          Temp          PotEng         Press        f_avgp[1]        Volume
0   280.35332     -41281.285      3991.5343      0              3707.2503
Averages over the last 11 of 21 rows, steps 1000 to 2000:
Temp PotEng Press f_avgp[1] Volume
304.644 -41293.3 -881.054 -927.058 3707.25
Loop time of 101.868 on 8 procs for 2000 steps with 350 atoms

undump dump_pos4

# Run equilibration
*****Equilibration pos4 starts.*****
include ff.mod.lmp
# Setup forcefield, system
# undefine any fix ave/* fix before using reset_timestep
if "$(is_defined(fix,avgp))" then "unfix avgp"
unfix avgp
reset_timestep 0

# Assign the force field
pair_style reaxff NULL safezone 3.0 mincap 150
# pair_coeff * * CHONSSi.ff O Si
# pair_coeff * * CHOSiNa.ff O Si
# pair_coeff * * SiOCHN_2018.ff O Si
# pair_coeff * * PDMSDecomp.ff Si O
pair_coeff * * CHONSi.ff C H O Si
# pair_coeff * * CHOFe.ff O Si

# charge method for reaxff
fix myqeq all qeq/reaxff 1 0.0 10.0 1.0e-6 reaxff maxiter 400
# Setup neighbor style
neighbor        2 bin
neigh_modify    every 10 delay 0 check no

# Setup output
fix avgp all ave/time  10 10 100 c_thermo_press mode vector
thermo		100
thermo_style custom step temp pe press f_avgp[1] vol
thermo_modify norm no

# NVT
fix 4 all nvt temp 300 300 50
run 2000
Step          Temp          PotEng         Press        f_avgp[1]        Volume
0   291.35318     -41294.913      5993.1135      0              3707.2503
Averages over the last 11 of 21 rows, steps 1000 to 2000:
Temp PotEng Press f_avgp[1] Volume
302.172 -41296.8 -1891.51 -608.097 3707.25
Loop time of 102.59 on 8 procs for 2000 steps with 350 atoms

# Obtain new stress tensor, convert index from LAMMPS to Voigt
variable pxx1 equal f_avgp[1]
variable pyy1 equal f_avgp[2]
variable pzz1 equal f_avgp[3]
variable pxy1 equal f_avgp[4]
variable pxz1 equal f_avgp[5]
variable pyz1 equal f_avgp[6]

# Compute elastic constant from pressure tensor
# d1 = -[pxx1-pxx0]/[(]v_delta/v_len0] defined in input script
variable C1pos equal 18.9641184836268
variable C2pos equal -38.8366521560171
variable C3pos equal 26.458349409552
variable C4pos equal 11.6500528460115
variable C5pos equal 9.71412442153656
variable C6pos equal 9.3796677253028

# Combine positive and negative
variable C14 equal 0.5*(11.4010754956779+18.9641184836268)
variable C24 equal 0.5*(4.88235541210741+-38.8366521560171)
variable C34 equal 0.5*(-14.1102407257907+26.458349409552)
variable C44 equal 0.5*(10.7549461678096+11.6500528460115)
variable C54 equal 0.5*(1.34545831420346+9.71412442153656)
variable C64 equal 0.5*(-3.50397165740402+9.3796677253028)

# Delete dir to make sure it is not reused
variable dir delete
# uxz Perturbation
variable dir equal 5
include displace.mod.lmp
# Find which reference length to use
variable len0 equal 17.4406533464764

# Reset box and simulation parameters
clear
# box tilt large
read_restart equil.res
Reading restart file ...
  restart file = 2 Aug 2023, LAMMPS = 2 Aug 2023
  restoring atom style full from restart
  triclinic box = (0.0027304142 0.27420022 -0.21607667) to (15.23547 14.2286 17.224577) with tilt (-6.785986 -0.0099033092 -1.1965688)
  pair style reaxff stores no restart info
  350 atoms
Finding 1-2 1-3 1-4 neighbors ...
     0 = max # of 1-2 neighbors
     0 = max # of 1-3 neighbors
     0 = max # of 1-4 neighbors
     1 = max # of special neighbors
  read_restart CPU = 0.004 seconds
*****Negative-change 5 starts.*****
include ff.mod.lmp
# Setup forcefield, system
# undefine any fix ave/* fix before using reset_timestep
if "$(is_defined(fix,avgp))" then "unfix avgp"
reset_timestep 0

# Assign the force field
pair_style reaxff NULL safezone 3.0 mincap 150
# pair_coeff * * CHONSSi.ff O Si
# pair_coeff * * CHOSiNa.ff O Si
# pair_coeff * * SiOCHN_2018.ff O Si
# pair_coeff * * PDMSDecomp.ff Si O
pair_coeff * * CHONSi.ff C H O Si
# pair_coeff * * CHOFe.ff O Si

# charge method for reaxff
fix myqeq all qeq/reaxff 1 0.0 10.0 1.0e-6 reaxff maxiter 400
# Setup neighbor style
neighbor        2 bin
neigh_modify    every 10 delay 0 check no

# Setup output
fix avgp all ave/time  10 10 100 c_thermo_press mode vector
thermo		100
thermo_style custom step temp pe press f_avgp[1] vol
thermo_modify norm no

# NVT
fix 4 all nvt temp 300 300 50
  fix style: nvt, fix ID: 4

# Negative deformation
variable delta equal -0.01*17.4406533464764
variable deltaxy equal -0.01*xy
variable deltaxz equal -0.01*xz
variable deltayz equal -0.01*yz
change_box all xz delta -0.174406533464764 remap units box
Changing box ...
  triclinic box = (0.0027304142 0.27420022 -0.21607667) to (15.23547 14.2286 17.224577) with tilt (-6.785986 -0.18430984 -1.1965688)

# Run MD for Negative deformation
# save trajectory
dump dump_neg5 all custom 100 dump/neg_deform5.lammpstrj id type x y z
run 2000
All restart file global fix info was re-assigned
Step          Temp          PotEng         Press        f_avgp[1]        Volume
0   280.35332     -41283.782      1427.9081      0              3707.2503
Averages over the last 11 of 21 rows, steps 1000 to 2000:
Temp PotEng Press f_avgp[1] Volume
305.147 -41299.4 3808.4 3347.46 3707.25
Loop time of 103.314 on 8 procs for 2000 steps with 350 atoms

undump dump_neg5

# Run equilibration
*****Equilibration neg5 starts.*****
include ff.mod.lmp
# Setup forcefield, system
# undefine any fix ave/* fix before using reset_timestep
if "$(is_defined(fix,avgp))" then "unfix avgp"
unfix avgp
reset_timestep 0

# Assign the force field
pair_style reaxff NULL safezone 3.0 mincap 150
# pair_coeff * * CHONSSi.ff O Si
# pair_coeff * * CHOSiNa.ff O Si
# pair_coeff * * SiOCHN_2018.ff O Si
# pair_coeff * * PDMSDecomp.ff Si O
pair_coeff * * CHONSi.ff C H O Si
# pair_coeff * * CHOFe.ff O Si

# charge method for reaxff
fix myqeq all qeq/reaxff 1 0.0 10.0 1.0e-6 reaxff maxiter 400
# Setup neighbor style
neighbor        2 bin
neigh_modify    every 10 delay 0 check no

# Setup output
fix avgp all ave/time  10 10 100 c_thermo_press mode vector
thermo		100
thermo_style custom step temp pe press f_avgp[1] vol
thermo_modify norm no

# NVT
fix 4 all nvt temp 300 300 50
run 2000
Step          Temp          PotEng         Press        f_avgp[1]        Volume
0   306.84528     -41320.186      7231.8849      0              3707.2503
Averages over the last 11 of 21 rows, steps 1000 to 2000:
Temp PotEng Press f_avgp[1] Volume
296.429 -41317 -2232.99 752.952 3707.25
Loop time of 102.408 on 8 procs for 2000 steps with 350 atoms

# Obtain new stress tensor Negative deformation, convert index from LAMMPS to Voigt
variable pxx1 equal f_avgp[1]
variable pyy1 equal f_avgp[2]
variable pzz1 equal f_avgp[3]
variable pxy1 equal f_avgp[4]
variable pxz1 equal f_avgp[5]
variable pyz1 equal f_avgp[6]

# Compute elastic constant from pressure
# d1 = -[pxx1-pxx0]/[(]v_delta/v_len0] defined in input script
variable C1neg equal 51.5702025926435
variable C2neg equal 44.7378721997381
variable C3neg equal 57.3477298121399
variable C4neg equal 20.5184754891318
variable C5neg equal 13.21545958437
variable C6neg equal -6.65876127922882

# Reset box and simulation parameters
clear
# box tilt large
read_restart equil.res
Reading restart file ...
  restart file = 2 Aug 2023, LAMMPS = 2 Aug 2023
  restoring atom style full from restart
  triclinic box = (0.0027304142 0.27420022 -0.21607667) to (15.23547 14.2286 17.224577) with tilt (-6.785986 -0.0099033092 -1.1965688)
  pair style reaxff stores no restart info
  350 atoms
Finding 1-2 1-3 1-4 neighbors ...
     0 = max # of 1-2 neighbors
     0 = max # of 1-3 neighbors
     0 = max # of 1-4 neighbors
     1 = max # of special neighbors
  read_restart CPU = 0.003 seconds
*****Positive-change 5 starts.*****
include ff.mod.lmp
# Setup forcefield, system
# undefine any fix ave/* fix before using reset_timestep
if "$(is_defined(fix,avgp))" then "unfix avgp"
reset_timestep 0

# Assign the force field
pair_style reaxff NULL safezone 3.0 mincap 150
# pair_coeff * * CHONSSi.ff O Si
# pair_coeff * * CHOSiNa.ff O Si
# pair_coeff * * SiOCHN_2018.ff O Si
# pair_coeff * * PDMSDecomp.ff Si O
pair_coeff * * CHONSi.ff C H O Si
# pair_coeff * * CHOFe.ff O Si

# charge method for reaxff
fix myqeq all qeq/reaxff 1 0.0 10.0 1.0e-6 reaxff maxiter 400
# Setup neighbor style
neighbor        2 bin
neigh_modify    every 10 delay 0 check no

# Setup output
fix avgp all ave/time  10 10 100 c_thermo_press mode vector
thermo		100
thermo_style custom step temp pe press f_avgp[1] vol
thermo_modify norm no

# NVT
fix 4 all nvt temp 300 300 50
  fix style: nvt, fix ID: 4

# Positive deformation
variable delta equal 0.01*17.4406533464764
variable deltaxy equal 0.01*xy
variable deltaxz equal 0.01*xz
variable deltayz equal 0.01*yz
change_box all xz delta 0.174406533464764 remap units box
Changing box ...
  triclinic box = (0.0027304142 0.27420022 -0.21607667) to (15.23547 14.2286 17.224577) with tilt (-6.785986 0.16450322 -1.1965688)

# Run positive deformation MD
# save trajectory
dump dump_pos5 all custom 100 dump/pos_deform5.lammpstrj id type x y z
run 2000
All restart file global fix info was re-assigned
Step          Temp          PotEng         Press        f_avgp[1]        Volume
0   280.35332     -41281.412      3966.5267      0              3707.2503
Averages over the last 11 of 21 rows, steps 1000 to 2000:
Temp PotEng Press f_avgp[1] Volume
299.264 -41309.1 -1546.84 -1522.03 3707.25
Loop time of 102.316 on 8 procs for 2000 steps with 350 atoms

undump dump_pos5

# Run equilibration
*****Equilibration pos5 starts.*****
include ff.mod.lmp
# Setup forcefield, system
# undefine any fix ave/* fix before using reset_timestep
if "$(is_defined(fix,avgp))" then "unfix avgp"
unfix avgp
reset_timestep 0

# Assign the force field
pair_style reaxff NULL safezone 3.0 mincap 150
# pair_coeff * * CHONSSi.ff O Si
# pair_coeff * * CHOSiNa.ff O Si
# pair_coeff * * SiOCHN_2018.ff O Si
# pair_coeff * * PDMSDecomp.ff Si O
pair_coeff * * CHONSi.ff C H O Si
# pair_coeff * * CHOFe.ff O Si

# charge method for reaxff
fix myqeq all qeq/reaxff 1 0.0 10.0 1.0e-6 reaxff maxiter 400
# Setup neighbor style
neighbor        2 bin
neigh_modify    every 10 delay 0 check no

# Setup output
fix avgp all ave/time  10 10 100 c_thermo_press mode vector
thermo		100
thermo_style custom step temp pe press f_avgp[1] vol
thermo_modify norm no

# NVT
fix 4 all nvt temp 300 300 50
run 2000
Step          Temp          PotEng         Press        f_avgp[1]        Volume
0   283.40181     -41314.994     -2563.4276      0              3707.2503
Averages over the last 11 of 21 rows, steps 1000 to 2000:
Temp PotEng Press f_avgp[1] Volume
299.362 -41296.2 -2891.6 -1036.45 3707.25
Loop time of 102.031 on 8 procs for 2000 steps with 350 atoms

# Obtain new stress tensor, convert index from LAMMPS to Voigt
variable pxx1 equal f_avgp[1]
variable pyy1 equal f_avgp[2]
variable pzz1 equal f_avgp[3]
variable pxy1 equal f_avgp[4]
variable pxz1 equal f_avgp[5]
variable pyz1 equal f_avgp[6]

# Compute elastic constant from pressure tensor
# d1 = -[pxx1-pxx0]/[(]v_delta/v_len0] defined in input script
variable C1pos equal -36.2702780222739
variable C2pos equal -24.69348712376
variable C3pos equal -24.5052457686866
variable C4pos equal -8.32147200341904
variable C5pos equal 24.8745240893335
variable C6pos equal 5.77138515210763

# Combine positive and negative
variable C15 equal 0.5*(51.5702025926435+-36.2702780222739)
variable C25 equal 0.5*(44.7378721997381+-24.69348712376)
variable C35 equal 0.5*(57.3477298121399+-24.5052457686866)
variable C45 equal 0.5*(20.5184754891318+-8.32147200341904)
variable C55 equal 0.5*(13.21545958437+24.8745240893335)
variable C65 equal 0.5*(-6.65876127922882+5.77138515210763)

# Delete dir to make sure it is not reused
variable dir delete
# uxy Perturbation
variable dir equal 6
include displace.mod.lmp
# Find which reference length to use
variable len0 equal 13.9543995646043

# Reset box and simulation parameters
clear
# box tilt large
read_restart equil.res
Reading restart file ...
  restart file = 2 Aug 2023, LAMMPS = 2 Aug 2023
  restoring atom style full from restart
  triclinic box = (0.0027304142 0.27420022 -0.21607667) to (15.23547 14.2286 17.224577) with tilt (-6.785986 -0.0099033092 -1.1965688)
  pair style reaxff stores no restart info
  350 atoms
Finding 1-2 1-3 1-4 neighbors ...
     0 = max # of 1-2 neighbors
     0 = max # of 1-3 neighbors
     0 = max # of 1-4 neighbors
     1 = max # of special neighbors
  read_restart CPU = 0.003 seconds
*****Negative-change 6 starts.*****
include ff.mod.lmp
# Setup forcefield, system
# undefine any fix ave/* fix before using reset_timestep
if "$(is_defined(fix,avgp))" then "unfix avgp"
reset_timestep 0

# Assign the force field
pair_style reaxff NULL safezone 3.0 mincap 150
# pair_coeff * * CHONSSi.ff O Si
# pair_coeff * * CHOSiNa.ff O Si
# pair_coeff * * SiOCHN_2018.ff O Si
# pair_coeff * * PDMSDecomp.ff Si O
pair_coeff * * CHONSi.ff C H O Si
# pair_coeff * * CHOFe.ff O Si

# charge method for reaxff
fix myqeq all qeq/reaxff 1 0.0 10.0 1.0e-6 reaxff maxiter 400
# Setup neighbor style
neighbor        2 bin
neigh_modify    every 10 delay 0 check no

# Setup output
fix avgp all ave/time  10 10 100 c_thermo_press mode vector
thermo		100
thermo_style custom step temp pe press f_avgp[1] vol
thermo_modify norm no

# NVT
fix 4 all nvt temp 300 300 50
  fix style: nvt, fix ID: 4

# Negative deformation
variable delta equal -0.01*13.9543995646043
variable deltaxy equal -0.01*xy
variable deltaxz equal -0.01*xz
variable deltayz equal -0.01*yz
change_box all xy delta -0.139543995646043 remap units box
Changing box ...
  triclinic box = (0.0027304142 0.27420022 -0.21607667) to (15.23547 14.2286 17.224577) with tilt (-6.92553 -0.0099033092 -1.1965688)

# Run MD for Negative deformation
# save trajectory
dump dump_neg6 all custom 100 dump/neg_deform6.lammpstrj id type x y z
run 2000
All restart file global fix info was re-assigned
Step          Temp          PotEng         Press        f_avgp[1]        Volume
0   280.35332     -41284.372      2237.6919      0              3707.2503
Averages over the last 11 of 21 rows, steps 1000 to 2000:
Temp PotEng Press f_avgp[1] Volume
294.328 -41293.5 2217.1 1142.22 3707.25
Loop time of 101.605 on 8 procs for 2000 steps with 350 atoms

undump dump_neg6

# Run equilibration
*****Equilibration neg6 starts.*****
include ff.mod.lmp
# Setup forcefield, system
# undefine any fix ave/* fix before using reset_timestep
if "$(is_defined(fix,avgp))" then "unfix avgp"
unfix avgp
reset_timestep 0

# Assign the force field
pair_style reaxff NULL safezone 3.0 mincap 150
# pair_coeff * * CHONSSi.ff O Si
# pair_coeff * * CHOSiNa.ff O Si
# pair_coeff * * SiOCHN_2018.ff O Si
# pair_coeff * * PDMSDecomp.ff Si O
pair_coeff * * CHONSi.ff C H O Si
# pair_coeff * * CHOFe.ff O Si

# charge method for reaxff
fix myqeq all qeq/reaxff 1 0.0 10.0 1.0e-6 reaxff maxiter 400
# Setup neighbor style
neighbor        2 bin
neigh_modify    every 10 delay 0 check no

# Setup output
fix avgp all ave/time  10 10 100 c_thermo_press mode vector
thermo		100
thermo_style custom step temp pe press f_avgp[1] vol
thermo_modify norm no

# NVT
fix 4 all nvt temp 300 300 50
run 2000
Step          Temp          PotEng         Press        f_avgp[1]        Volume
0   283.81728     -41315.244     -1539.9475      0              3707.2503
Averages over the last 11 of 21 rows, steps 1000 to 2000:
Temp PotEng Press f_avgp[1] Volume
295.449 -41303 3621.73 66.7815 3707.25
Loop time of 102.02 on 8 procs for 2000 steps with 350 atoms

# Obtain new stress tensor Negative deformation, convert index from LAMMPS to Voigt
variable pxx1 equal f_avgp[1]
variable pyy1 equal f_avgp[2]
variable pzz1 equal f_avgp[3]
variable pxy1 equal f_avgp[4]
variable pxz1 equal f_avgp[5]
variable pyz1 equal f_avgp[6]

# Compute elastic constant from pressure
# d1 = -[pxx1-pxx0]/[(]v_delta/v_len0] defined in input script
variable C1neg equal 23.5042224794764
variable C2neg equal 5.2626949701638
variable C3neg equal 6.06007334394497
variable C4neg equal 1.91026939368331
variable C5neg equal -5.57919478754008
variable C6neg equal -10.0865430856394

# Reset box and simulation parameters
clear
# box tilt large
read_restart equil.res
Reading restart file ...
  restart file = 2 Aug 2023, LAMMPS = 2 Aug 2023
  restoring atom style full from restart
  triclinic box = (0.0027304142 0.27420022 -0.21607667) to (15.23547 14.2286 17.224577) with tilt (-6.785986 -0.0099033092 -1.1965688)
  pair style reaxff stores no restart info
  350 atoms
Finding 1-2 1-3 1-4 neighbors ...
     0 = max # of 1-2 neighbors
     0 = max # of 1-3 neighbors
     0 = max # of 1-4 neighbors
     1 = max # of special neighbors
  read_restart CPU = 0.003 seconds
*****Positive-change 6 starts.*****
include ff.mod.lmp
# Setup forcefield, system
# undefine any fix ave/* fix before using reset_timestep
if "$(is_defined(fix,avgp))" then "unfix avgp"
reset_timestep 0

# Assign the force field
pair_style reaxff NULL safezone 3.0 mincap 150
# pair_coeff * * CHONSSi.ff O Si
# pair_coeff * * CHOSiNa.ff O Si
# pair_coeff * * SiOCHN_2018.ff O Si
# pair_coeff * * PDMSDecomp.ff Si O
pair_coeff * * CHONSi.ff C H O Si
# pair_coeff * * CHOFe.ff O Si

# charge method for reaxff
fix myqeq all qeq/reaxff 1 0.0 10.0 1.0e-6 reaxff maxiter 400
# Setup neighbor style
neighbor        2 bin
neigh_modify    every 10 delay 0 check no

# Setup output
fix avgp all ave/time  10 10 100 c_thermo_press mode vector
thermo		100
thermo_style custom step temp pe press f_avgp[1] vol
thermo_modify norm no

# NVT
fix 4 all nvt temp 300 300 50
  fix style: nvt, fix ID: 4

# Positive deformation
variable delta equal 0.01*13.9543995646043
variable deltaxy equal 0.01*xy
variable deltaxz equal 0.01*xz
variable deltayz equal 0.01*yz
change_box all xy delta 0.139543995646043 remap units box
Changing box ...
  triclinic box = (0.0027304142 0.27420022 -0.21607667) to (15.23547 14.2286 17.224577) with tilt (-6.646442 -0.0099033092 -1.1965688)

# Run positive deformation MD
# save trajectory
dump dump_pos6 all custom 100 dump/pos_deform6.lammpstrj id type x y z
run 2000
All restart file global fix info was re-assigned
Step          Temp          PotEng         Press        f_avgp[1]        Volume
0   280.35332     -41282.363      3235.1632      0              3707.2503
Averages over the last 11 of 21 rows, steps 1000 to 2000:
Temp PotEng Press f_avgp[1] Volume
300.581 -41284.6 -2863.69 -976.543 3707.25
Loop time of 99.4462 on 8 procs for 2000 steps with 350 atoms

undump dump_pos6

# Run equilibration
*****Equilibration pos6 starts.*****
include ff.mod.lmp
# Setup forcefield, system
# undefine any fix ave/* fix before using reset_timestep
if "$(is_defined(fix,avgp))" then "unfix avgp"
unfix avgp
reset_timestep 0

# Assign the force field
pair_style reaxff NULL safezone 3.0 mincap 150
# pair_coeff * * CHONSSi.ff O Si
# pair_coeff * * CHOSiNa.ff O Si
# pair_coeff * * SiOCHN_2018.ff O Si
# pair_coeff * * PDMSDecomp.ff Si O
pair_coeff * * CHONSi.ff C H O Si
# pair_coeff * * CHOFe.ff O Si

# charge method for reaxff
fix myqeq all qeq/reaxff 1 0.0 10.0 1.0e-6 reaxff maxiter 400
# Setup neighbor style
neighbor        2 bin
neigh_modify    every 10 delay 0 check no

# Setup output
fix avgp all ave/time  10 10 100 c_thermo_press mode vector
thermo		100
thermo_style custom step temp pe press f_avgp[1] vol
thermo_modify norm no

# NVT
fix 4 all nvt temp 300 300 50
run 2000
Step          Temp          PotEng         Press        f_avgp[1]        Volume
0   285.14343     -41293.958      3064.7482      0              3707.2503
Averages over the last 11 of 21 rows, steps 1000 to 2000:
Temp PotEng Press f_avgp[1] Volume
300.312 -41296.5 -192.442 -1893.33 3707.25
Loop time of 90.4264 on 8 procs for 2000 steps with 350 atoms

# Obtain new stress tensor, convert index from LAMMPS to Voigt
variable pxx1 equal f_avgp[1]
variable pyy1 equal f_avgp[2]
variable pzz1 equal f_avgp[3]
variable pxy1 equal f_avgp[4]
variable pxz1 equal f_avgp[5]
variable pyz1 equal f_avgp[6]

# Compute elastic constant from pressure tensor
# d1 = -[pxx1-pxx0]/[(]v_delta/v_len0] defined in input script
variable C1pos equal -28.4586156202256
variable C2pos equal -45.5798630713663
variable C3pos equal -66.0376957009694
variable C4pos equal -8.68007491403442
variable C5pos equal 6.57679345067997
variable C6pos equal 10.8509726339204

# Combine positive and negative
variable C16 equal 0.5*(23.5042224794764+-28.4586156202256)
variable C26 equal 0.5*(5.2626949701638+-45.5798630713663)
variable C36 equal 0.5*(6.06007334394497+-66.0376957009694)
variable C46 equal 0.5*(1.91026939368331+-8.68007491403442)
variable C56 equal 0.5*(-5.57919478754008+6.57679345067997)
variable C66 equal 0.5*(-10.0865430856394+10.8509726339204)

# Delete dir to make sure it is not reused
variable dir delete

# Calc and output
include calc.mod.lmp
variable C11all equal 88.2430422340863
variable C22all equal 45.2043886965538
variable C33all equal 41.4338636376943

variable C44all equal 11.2024995069105
variable C55all equal 19.0449918368518
variable C66all equal 0.3822147741405

variable C12all equal 0.5*(1.12247858620155+5.6414106466616)
variable C13all equal 0.5*(1.48045534728315+55.9366236480298)
variable C23all equal 0.5*(34.6106899046484+14.9828585146712)

variable C14all equal 0.5*(15.1825969896523+-2.11060301703811)
variable C15all equal 0.5*(7.6499622851848+-19.2641988273934)
variable C16all equal 0.5*(-2.4771965703746+-1.5395709004715)

variable C24all equal 0.5*(-16.9771483719548+-2.42491453392857)
variable C25all equal 0.5*(10.022192537989+10.0813636936786)
variable C26all equal 0.5*(-20.1585840506012+-4.78774791145326)

variable C34all equal 0.5*(6.17405434188065+8.1350267152457)
variable C35all equal 0.5*(16.4212420217267+-4.91457696585588)
variable C36all equal 0.5*(-29.9888111785122+-2.75218858423016)

variable C45all equal 0.5*(6.09850174285638+5.52979136787001)
variable C46all equal 0.5*(-3.38490276017556+2.93784803394939)
variable C56all equal 0.5*(0.498799331569945+-0.443688063560595)

# print stiffness tensor to "C.log"
print """
"""  file C.log screen no
