LAMMPS (2 Aug 2023 - Update 2)
# Initialization
units           real
dimension       3
boundary        p p p
atom_style      full
timestep        0.5   # fs

variable       Tl equal 300.0   # low temperature
variable       Th equal 2200.0  # high temperature
variable       Td equal 50.0  # damping time
variable       P equal 1.0  # pressure
variable       Ph equal 1.0  # pressure
variable       Pd equal 10*50
variable       nrun equal 100  # number of steps
variable       nequil equal 50*100
variable       nheat equal 20*100
variable       ncool equal 100*100
variable       nthermo equal 100

# Read the initial sctructure
# box tilt large
variable structure string 333-HD-100C-11-VASP
read_data       333-HD-100C-11-VASP.data
Reading data file ...
  triclinic box = (0 0 0) to (15.0372 13.535 17.6074) with tilt (-7.4931 -0.1585 0.0807)
  reading atoms ...
  366 atoms
Finding 1-2 1-3 1-4 neighbors ...
     0 = max # of 1-2 neighbors
     0 = max # of 1-3 neighbors
     0 = max # of 1-4 neighbors
     1 = max # of special neighbors

# Assign the force field
pair_style reaxff NULL safezone 3.0 mincap 150
# pair_coeff * * CHONSSi.ff O Si
# pair_coeff * * CHOSiNa.ff O Si
# pair_coeff * * SiOCHN_2018.ff C H O Si
# pair_coeff * * PDMSDecomp.ff Si O
pair_coeff * * CHONSi.ff C H O Si
# pair_coeff * * CHOFe.ff O Si

fix myqeq all qeq/reaxff 1 0.0 10.0 1.0e-6 reaxff maxiter 400
fix bondinfo all reaxff/bonds 100 bonds.reaxff

neighbor        2 bin
neigh_modify    every 10 delay 0 check no

# Print system info
thermo          100
thermo_style    custom step temp press density pe etotal

# Energy minimization
print "*****Minimization starts.*****"
*****Minimization starts.*****
fix min1 all nve
minimize 1.0e-6 1.0e-6 100 1000

CITE-CITE-CITE-CITE-CITE-CITE-CITE-CITE-CITE-CITE-CITE-CITE-CITE

Your simulation uses code contributions which should be cited:

- pair reaxff command: doi:10.1016/j.parco.2011.08.005

@Article{Aktulga12,
 author = {H. M. Aktulga and J. C. Fogarty and S. A. Pandit and A. Y. Grama},
 title = {Parallel Reactive Molecular Dynamics: {N}umerical Methods and Algorithmic Techniques},
 journal = {Parallel Computing},
 year =    2012,
 volume =  38,
 number =  {4--5},
 pages =   {245--259}
}

- fix qeq/reaxff command: doi:10.1016/j.parco.2011.08.005

@Article{Aktulga12,
 author = {H. M. Aktulga and J. C. Fogarty and S. A. Pandit and A. Y. Grama},
 title = {Parallel Reactive Molecular Dynamics: {N}umerical Methods and Algorithmic Techniques},
 journal = {Parallel Computing},
 year =    2012,
 volume =  38,
 pages =   {245--259}
}

CITE-CITE-CITE-CITE-CITE-CITE-CITE-CITE-CITE-CITE-CITE-CITE-CITE

Step          Temp          Press         Density         PotEng         TotEng
0   0              75874.465      1.9939932     -43876.171     -43876.171
Loop time of 35.1601 on 1 procs for 22 steps with 366 atoms

Minimization stats:
  Stopping criterion = energy tolerance
  Energy initial, next-to-last, final =
  Force two-norm initial, final = 945.09185 185.12538
  Force max component initial, final = 142.08594 79.85893
  Final line search alpha, max atom move = 0.0015103976 0.12061874
  Iterations, force evaluations = 22 56

unfix min1
# Save the optimized structure
write_data 333-HD-100C-11-VASP_opt.data
System init for write_data ...

reset_timestep 0
# Save trajectory
#dump dump1 all custom 500 dump_opt.lammpstrj id type x y z q
dump dump1 all custom 100 dump_all.lammpstrj   id   type   x   y   z   q

# equilibration at low T
print "*****Equilibration starts.*****"
*****Equilibration starts.*****
velocity        all create 300 12345
fix             equil1 all npt temp 300 300 50 tri 1 1 500
# 1 ps : 1e3 fs / 0.5 fs = 2e3 steps
run             5000
Step          Temp          Press         Density         PotEng         TotEng
0   300            24083.216      1.9939932     -44408.885     -44082.487
Averages over the last 26 of 51 rows, steps 2500 to 5000:
Temp Press Density PotEng TotEng
301.549 757.866 1.92355 -44381.2 -44053.1
Loop time of 2760.52 on 1 procs for 5000 steps with 366 atoms

# Heat to high T
print "*****Heat starts.*****"
*****Heat starts.*****
unfix           equil1
fix             heat1 all nvt temp 300 2200 50
# 1 ps : 1e3 fs / 0.5 fs = 2e3 steps
run             2000
Step          Temp          Press         Density         PotEng         TotEng
5000   297.70544     -6783.4582      1.9163254     -44408.091     -44084.188
Averages over the last 11 of 21 rows, steps 6000 to 7000:
Temp Press Density PotEng TotEng
1700.32 29899.6 1.91633 -42662.8 -40812.9
Loop time of 1046.19 on 1 procs for 2000 steps with 366 atoms
