LAMMPS (2 Aug 2023 - Update 2)
# Initialization
units           real
dimension       3
boundary        p p p
atom_style      full

variable       timestep equal 0.5   # fs
variable       T equal 300.0   # low temperature
variable       Td equal 100*0.5
# variable       P equal 1.0  # pressure

variable       nevery equal 1000
variable       nrepeat equal 1
variable       nfreq equal 1000*1
variable       nthermo equal 1000/10
variable       nequil equal 200*100

variable       seed string 123456
variable       structure string 333U-50C-20
variable       FF string "* * SiOCHN_2018.ff C H O Si"          # force field args for pair_coeff
# pair_coeff * * CHONSSi.ff C H O Si
# pair_coeff * * CHOSiNa.ff C H O Si
# pair_coeff * * SiOCHN_2018.ff C H O Si
# pair_coeff * * PDMSDecomp.ff C H O Si
# pair_coeff * * CHONSi.ff C H O Si
# pair_coeff * * CHOFe.ff O Si

timestep        0.5

# box tilt large
# Read the initial sctructure
read_data       333U-50C-20.data
Reading data file ...
  triclinic box = (0 0 0) to (15.2382 14.5028 17.0085) with tilt (-6.2627 -0.4482 -0.642)
  reading atoms ...
  350 atoms
Finding 1-2 1-3 1-4 neighbors ...
     0 = max # of 1-2 neighbors
     0 = max # of 1-3 neighbors
     0 = max # of 1-4 neighbors
     1 = max # of special neighbors

# Assign the force field
pair_style reaxff NULL safezone 3.0 mincap 150
pair_coeff * * SiOCHN_2018.ff C H O Si
# Charge equilibration for ReaxFF
fix myqeq all qeq/reaxff 1 0.0 10.0 1.0e-6 reaxff maxiter 400

neighbor        2 bin
neigh_modify    every 10 delay 0 check yes

# Energy minimization
print "*****Minimization starts.*****"
*****Minimization starts.*****
# Print system info
thermo          100
thermo_style    custom step temp press density vol pe
dump dump_opt all custom 1 dump/dump_opt.lammpstrj id type q x y z
minimize 1.0e-6 1.0e-6 100 1000

CITE-CITE-CITE-CITE-CITE-CITE-CITE-CITE-CITE-CITE-CITE-CITE-CITE

Your simulation uses code contributions which should be cited:

- pair reaxff command: doi:10.1016/j.parco.2011.08.005

@Article{Aktulga12,
 author = {H. M. Aktulga and J. C. Fogarty and S. A. Pandit and A. Y. Grama},
 title = {Parallel Reactive Molecular Dynamics: {N}umerical Methods and Algorithmic Techniques},
 journal = {Parallel Computing},
 year =    2012,
 volume =  38,
 number =  {4--5},
 pages =   {245--259}
}

- fix qeq/reaxff command: doi:10.1016/j.parco.2011.08.005

@Article{Aktulga12,
 author = {H. M. Aktulga and J. C. Fogarty and S. A. Pandit and A. Y. Grama},
 title = {Parallel Reactive Molecular Dynamics: {N}umerical Methods and Algorithmic Techniques},
 journal = {Parallel Computing},
 year =    2012,
 volume =  38,
 pages =   {245--259}
}

CITE-CITE-CITE-CITE-CITE-CITE-CITE-CITE-CITE-CITE-CITE-CITE-CITE

Step          Temp          Press         Density         Volume         PotEng
0   0              211972.8       1.7278661      3758.8201     -30994.714
Loop time of 7.73844 on 4 procs for 30 steps with 350 atoms

Minimization stats:
  Stopping criterion = energy tolerance
  Energy initial, next-to-last, final =
  Force two-norm initial, final = 4820.5085 253.68739
  Force max component initial, final = 634.7278 116.94342
  Final line search alpha, max atom move = 0.00022774299 0.026633043
  Iterations, force evaluations = 30 102

min_style cg
# Save the optimized structure
write_data 333U-50C-20_opt.data
System init for write_data ...
undump dump_opt
reset_timestep 0

velocity        all create 300 123456 dist gaussian
# equilibration at low T
print "##### Equilibration starts.##### "
##### Equilibration starts.#####
velocity        all create 300 12345
fix             equil1 all nvt temp 300 300 50

# out put bonds and species information
fix bondinfo all reaxff/bonds 1000 bonds/bonds.reaxff

# compute MSD and RDF
compute msd1 all msd
fix myMSD all ave/time 10 10 100 c_msd1[1] c_msd1[2] c_msd1[3] c_msd1[4] c_thermo_temp     file msd.out     title2 "# TimeStep MSD_X MSD_Y MSD_Z MSD_Total Temperture"
# C-C C-Si Si-O C-H Si-Si
compute rdf1 all rdf 100  1 1  1 4  3 4  1 2 cutoff 5.0
fix myRDF all ave/time 1000 1 1000 c_rdf1[*]     file rdf.out mode vector     title3 "# Row r g1(r) coor1(r) ..."

thermo_style    custom step temp press pe etotal
# Save trajectory
dump dump_eq all custom/gz 100 dump/dump_eq.lammpstrj.gz id type x y z q

run 20000
Step          Temp          Press          PotEng         TotEng
0   300            15675.473     -33892.8       -33580.709
Averages over the last 101 of 201 rows, steps 10000 to 20000:
Temp Press PotEng TotEng
298.442 2909.17 -35730 -35419.5
Loop time of 1750.68 on 4 procs for 20000 steps with 350 atoms

# Save the equilibrated structure
write_data 333U-50C-20_eq.data
System init for write_data ...
undump dump_eq
unfix myMSD
unfix myRDF
