LAMMPS (2 Aug 2023 - Update 2)
# Initialization
units           real
dimension       3
boundary        p p p
atom_style      full
timestep        0.5   # fs

# Define MD parameters
variable nevery equal 10                  # sampling interval
variable nrepeat equal 10                 # number of samples
variable nthermo equal 10*10
variable nfreq equal 100
# 1 ps : 1e3 fs / 0.5 fs = 2e3 steps
variable nequil equal 20*100
variable nrun equal 20*100
variable temp equal 300.0                # temperature of initial sample
variable tdamp equal 50.0                 # time constant for thermostat
variable seed equal 123457                # seed for thermostat
variable ufac equal 1.01325e-4         # pressure unit conversion, from atm to Gpa
variable up equal 0.01                  # the deformation magnitude 2.0e-2

# Read the initial sctructure
# box tilt large
variable structure string 333U-50C-5-vasp-an
read_data       333U-50C-5-vasp-an.data
Reading data file ...
  triclinic box = (0.069742272 0.40119664 -0.14695996) to (15.608458 13.818203 17.78526) with tilt (-7.7490667 -1.5378211 0.14232347)
  reading atoms ...
  350 atoms
  reading velocities ...
  350 velocities
Finding 1-2 1-3 1-4 neighbors ...
     0 = max # of 1-2 neighbors
     0 = max # of 1-3 neighbors
     0 = max # of 1-4 neighbors
     1 = max # of special neighbors

# Energy minimization
print "*****Minimization starts.*****"
*****Minimization starts.*****
velocity        all create 300 123457 dist gaussian
minimize 1.0e-6 1.0e-6 100 1000
Step          Temp          E_pair         E_mol          TotEng         Press
0   300            0              0              312.09081      3816.0058
Loop time of 4.47489e-05 on 8 procs for 1 steps with 350 atoms

Minimization stats:
  Stopping criterion = search direction is not downhill
  Energy initial, next-to-last, final =
  Force two-norm initial, final = 0 0
  Force max component initial, final = 0 0
  Final line search alpha, max atom move = 0 0
  Iterations, force evaluations = 1 0

min_style cg

# Equilibration
include ff.mod.lmp
# Setup forcefield, system
# undefine any fix ave/* fix before using reset_timestep
if "$(is_defined(fix,avgp))" then "unfix avgp"
reset_timestep 0

# Assign the force field
pair_style reaxff NULL safezone 3.0 mincap 150
# pair_coeff * * CHONSSi.ff O Si
# pair_coeff * * CHOSiNa.ff O Si
# pair_coeff * * SiOCHN_2018.ff O Si
# pair_coeff * * PDMSDecomp.ff Si O
pair_coeff * * CHONSi.ff C H O Si
# pair_coeff * * CHOFe.ff O Si

# charge method for reaxff
fix myqeq all qeq/reaxff 1 0.0 10.0 1.0e-6 reaxff maxiter 400
# Setup neighbor style
neighbor        2 bin
neigh_modify    every 10 delay 0 check no

# Setup output
fix avgp all ave/time  10 10 100 c_thermo_press mode vector
thermo		100
thermo_style custom step temp pe press f_avgp[1] vol
thermo_modify norm no

# NVT
fix 4 all nvt temp 300 300 50
thermo_style custom step temp pe press f_avgp[1] density vol
run 2000

CITE-CITE-CITE-CITE-CITE-CITE-CITE-CITE-CITE-CITE-CITE-CITE-CITE

Your simulation uses code contributions which should be cited:

- pair reaxff command: doi:10.1016/j.parco.2011.08.005

@Article{Aktulga12,
 author = {H. M. Aktulga and J. C. Fogarty and S. A. Pandit and A. Y. Grama},
 title = {Parallel Reactive Molecular Dynamics: {N}umerical Methods and Algorithmic Techniques},
 journal = {Parallel Computing},
 year =    2012,
 volume =  38,
 number =  {4--5},
 pages =   {245--259}
}

- fix qeq/reaxff command: doi:10.1016/j.parco.2011.08.005

@Article{Aktulga12,
 author = {H. M. Aktulga and J. C. Fogarty and S. A. Pandit and A. Y. Grama},
 title = {Parallel Reactive Molecular Dynamics: {N}umerical Methods and Algorithmic Techniques},
 journal = {Parallel Computing},
 year =    2012,
 volume =  38,
 pages =   {245--259}
}

CITE-CITE-CITE-CITE-CITE-CITE-CITE-CITE-CITE-CITE-CITE-CITE-CITE

Step          Temp          PotEng         Press        f_avgp[1]       Density         Volume
0   300           -41262.556     -800.07054      0              1.737228       3738.5639
Averages over the last 11 of 21 rows, steps 1000 to 2000:
Temp PotEng Press f_avgp[1] Density Volume
297.716 -41257.6 -4464.67 -307.125 1.73723 3738.56
Loop time of 97.5019 on 8 procs for 2000 steps with 350 atoms

# Save the optimized structure
write_data 333U-50C-5-vasp-an_opt.data
System init for write_data ...

# Save initial pressure, box size
variable pxx0 equal f_avgp[1]
variable pyy0 equal f_avgp[2]
variable pzz0 equal f_avgp[3]
variable pxy0 equal f_avgp[4]
variable pxz0 equal f_avgp[5]
variable pyz0 equal f_avgp[6]

# use tmp to save initial box length
variable tmp equal lx
variable lx0 equal 15.5387154558726
variable tmp equal ly
variable ly0 equal 13.4170067184353
variable tmp equal lz
variable lz0 equal 17.9322199223083

# define the derivatives, w.r.t. strain tensor
# Constants uses $, variables use v_
variable d1 equal -(v_pxx1-1253.0993950643)/(v_delta/v_len0)*0.000101325
variable d2 equal -(v_pyy1--9132.31449896996)/(v_delta/v_len0)*0.000101325
variable d3 equal -(v_pzz1-1622.30031668922)/(v_delta/v_len0)*0.000101325
variable d4 equal -(v_pyz1--1031.26831497638)/(v_delta/v_len0)*0.000101325*0.5
variable d5 equal -(v_pxz1--1739.5466368942)/(v_delta/v_len0)*0.000101325*0.5
variable d6 equal -(v_pxy1-2911.51649118783)/(v_delta/v_len0)*0.000101325*0.5

# Write restart
write_restart equil.res
System init for write_restart ...

# dir: direction
# uxx Perturbation
variable dir equal 1
include displace.mod.lmp
# Find which reference length to use
variable len0 equal 15.5387154558726

# Reset box and simulation parameters
clear
# box tilt large
read_restart equil.res
Reading restart file ...
  restart file = 2 Aug 2023, LAMMPS = 2 Aug 2023
  restoring atom style full from restart
  triclinic box = (0.069742272 0.40119664 -0.14695996) to (15.608458 13.818203 17.78526) with tilt (-7.7490667 -1.5378211 0.14232347)
  pair style reaxff stores no restart info
  350 atoms
Finding 1-2 1-3 1-4 neighbors ...
     0 = max # of 1-2 neighbors
     0 = max # of 1-3 neighbors
     0 = max # of 1-4 neighbors
     1 = max # of special neighbors
  read_restart CPU = 0.003 seconds
*****Negative-change 1 starts.*****
include ff.mod.lmp
# Setup forcefield, system
# undefine any fix ave/* fix before using reset_timestep
if "$(is_defined(fix,avgp))" then "unfix avgp"
reset_timestep 0

# Assign the force field
pair_style reaxff NULL safezone 3.0 mincap 150
# pair_coeff * * CHONSSi.ff O Si
# pair_coeff * * CHOSiNa.ff O Si
# pair_coeff * * SiOCHN_2018.ff O Si
# pair_coeff * * PDMSDecomp.ff Si O
pair_coeff * * CHONSi.ff C H O Si
# pair_coeff * * CHOFe.ff O Si

# charge method for reaxff
fix myqeq all qeq/reaxff 1 0.0 10.0 1.0e-6 reaxff maxiter 400
# Setup neighbor style
neighbor        2 bin
neigh_modify    every 10 delay 0 check no

# Setup output
fix avgp all ave/time  10 10 100 c_thermo_press mode vector
thermo		100
thermo_style custom step temp pe press f_avgp[1] vol
thermo_modify norm no

# NVT
fix 4 all nvt temp 300 300 50
  fix style: nvt, fix ID: 4

# Negative deformation
variable delta equal -0.01*15.5387154558726
variable deltaxy equal -0.01*xy
variable deltaxz equal -0.01*xz
variable deltayz equal -0.01*yz
change_box all x delta 0 -0.155387154558726 xy delta 0.0774906665315158 xz delta 0.01537821112214 remap units box
Changing box ...
  triclinic box = (0.069742272 0.40119664 -0.14695996) to (15.453071 13.818203 17.78526) with tilt (-7.7490667 -1.5378211 0.14232347)
  triclinic box = (0.069742272 0.40119664 -0.14695996) to (15.453071 13.818203 17.78526) with tilt (-7.671576 -1.5378211 0.14232347)
  triclinic box = (0.069742272 0.40119664 -0.14695996) to (15.453071 13.818203 17.78526) with tilt (-7.671576 -1.5224429 0.14232347)

# Run MD for Negative deformation
# save trajectory
dump dump_neg1 all custom 100 dump/neg_deform1.lammpstrj id type x y z
run 2000
All restart file global fix info was re-assigned
Step          Temp          PotEng         Press        f_avgp[1]        Volume
0   289.20158     -41234.459      46885.011      0              3701.1783
Averages over the last 11 of 21 rows, steps 1000 to 2000:
Temp PotEng Press f_avgp[1] Volume
307.733 -41254.5 523.163 830.972 3701.18
Loop time of 98.8329 on 8 procs for 2000 steps with 350 atoms

undump dump_neg1

# Run equilibration
*****Equilibration neg1 starts.*****
include ff.mod.lmp
# Setup forcefield, system
# undefine any fix ave/* fix before using reset_timestep
if "$(is_defined(fix,avgp))" then "unfix avgp"
unfix avgp
reset_timestep 0

# Assign the force field
pair_style reaxff NULL safezone 3.0 mincap 150
# pair_coeff * * CHONSSi.ff O Si
# pair_coeff * * CHOSiNa.ff O Si
# pair_coeff * * SiOCHN_2018.ff O Si
# pair_coeff * * PDMSDecomp.ff Si O
pair_coeff * * CHONSi.ff C H O Si
# pair_coeff * * CHOFe.ff O Si

# charge method for reaxff
fix myqeq all qeq/reaxff 1 0.0 10.0 1.0e-6 reaxff maxiter 400
# Setup neighbor style
neighbor        2 bin
neigh_modify    every 10 delay 0 check no

# Setup output
fix avgp all ave/time  10 10 100 c_thermo_press mode vector
thermo		100
thermo_style custom step temp pe press f_avgp[1] vol
thermo_modify norm no

# NVT
fix 4 all nvt temp 300 300 50
run 2000
Step          Temp          PotEng         Press        f_avgp[1]        Volume
0   296.42264     -41233.295     -3614.6448      0              3701.1783
Averages over the last 11 of 21 rows, steps 1000 to 2000:
Temp PotEng Press f_avgp[1] Volume
300.613 -41265 849.863 468.476 3701.18
Loop time of 99.1652 on 8 procs for 2000 steps with 350 atoms

# Obtain new stress tensor Negative deformation, convert index from LAMMPS to Voigt
variable pxx1 equal f_avgp[1]
variable pyy1 equal f_avgp[2]
variable pzz1 equal f_avgp[3]
variable pxy1 equal f_avgp[4]
variable pxz1 equal f_avgp[5]
variable pyz1 equal f_avgp[6]

# Compute elastic constant from pressure
# d1 = -[pxx1-pxx0]/[(]v_delta/v_len0] defined in input script
variable C1neg equal -44.7224675384467
variable C2neg equal 33.7034226117595
variable C3neg equal -16.9462808479382
variable C4neg equal -3.66171372108444
variable C5neg equal 16.6693047296377
variable C6neg equal -26.1862964419686

# Reset box and simulation parameters
clear
# box tilt large
read_restart equil.res
Reading restart file ...
  restart file = 2 Aug 2023, LAMMPS = 2 Aug 2023
  restoring atom style full from restart
  triclinic box = (0.069742272 0.40119664 -0.14695996) to (15.608458 13.818203 17.78526) with tilt (-7.7490667 -1.5378211 0.14232347)
  pair style reaxff stores no restart info
  350 atoms
Finding 1-2 1-3 1-4 neighbors ...
     0 = max # of 1-2 neighbors
     0 = max # of 1-3 neighbors
     0 = max # of 1-4 neighbors
     1 = max # of special neighbors
  read_restart CPU = 0.003 seconds
*****Positive-change 1 starts.*****
include ff.mod.lmp
# Setup forcefield, system
# undefine any fix ave/* fix before using reset_timestep
if "$(is_defined(fix,avgp))" then "unfix avgp"
reset_timestep 0

# Assign the force field
pair_style reaxff NULL safezone 3.0 mincap 150
# pair_coeff * * CHONSSi.ff O Si
# pair_coeff * * CHOSiNa.ff O Si
# pair_coeff * * SiOCHN_2018.ff O Si
# pair_coeff * * PDMSDecomp.ff Si O
pair_coeff * * CHONSi.ff C H O Si
# pair_coeff * * CHOFe.ff O Si

# charge method for reaxff
fix myqeq all qeq/reaxff 1 0.0 10.0 1.0e-6 reaxff maxiter 400
# Setup neighbor style
neighbor        2 bin
neigh_modify    every 10 delay 0 check no

# Setup output
fix avgp all ave/time  10 10 100 c_thermo_press mode vector
thermo		100
thermo_style custom step temp pe press f_avgp[1] vol
thermo_modify norm no

# NVT
fix 4 all nvt temp 300 300 50
  fix style: nvt, fix ID: 4

# Positive deformation
variable delta equal 0.01*15.5387154558726
variable deltaxy equal 0.01*xy
variable deltaxz equal 0.01*xz
variable deltayz equal 0.01*yz
change_box all x delta 0 0.155387154558726 xy delta -0.0774906665315158 xz delta -0.01537821112214 remap units box
Changing box ...
  triclinic box = (0.069742272 0.40119664 -0.14695996) to (15.763845 13.818203 17.78526) with tilt (-7.7490667 -1.5378211 0.14232347)
  triclinic box = (0.069742272 0.40119664 -0.14695996) to (15.763845 13.818203 17.78526) with tilt (-7.8265573 -1.5378211 0.14232347)
  triclinic box = (0.069742272 0.40119664 -0.14695996) to (15.763845 13.818203 17.78526) with tilt (-7.8265573 -1.5531993 0.14232347)

# Run positive deformation MD
# save trajectory
dump dump_pos1 all custom 100 dump/pos_deform1.lammpstrj id type x y z
run 2000
All restart file global fix info was re-assigned
Step          Temp          PotEng         Press        f_avgp[1]        Volume
0   289.20158     -41230.897     -48636.107      0              3775.9495
Averages over the last 11 of 21 rows, steps 1000 to 2000:
Temp PotEng Press f_avgp[1] Volume
303.257 -41244.7 -632.926 -3973.51 3775.95
Loop time of 96.4497 on 8 procs for 2000 steps with 350 atoms

undump dump_pos1

# Run equilibration
*****Equilibration pos1 starts.*****
include ff.mod.lmp
# Setup forcefield, system
# undefine any fix ave/* fix before using reset_timestep
if "$(is_defined(fix,avgp))" then "unfix avgp"
unfix avgp
reset_timestep 0

# Assign the force field
pair_style reaxff NULL safezone 3.0 mincap 150
# pair_coeff * * CHONSSi.ff O Si
# pair_coeff * * CHOSiNa.ff O Si
# pair_coeff * * SiOCHN_2018.ff O Si
# pair_coeff * * PDMSDecomp.ff Si O
pair_coeff * * CHONSi.ff C H O Si
# pair_coeff * * CHOFe.ff O Si

# charge method for reaxff
fix myqeq all qeq/reaxff 1 0.0 10.0 1.0e-6 reaxff maxiter 400
# Setup neighbor style
neighbor        2 bin
neigh_modify    every 10 delay 0 check no

# Setup output
fix avgp all ave/time  10 10 100 c_thermo_press mode vector
thermo		100
thermo_style custom step temp pe press f_avgp[1] vol
thermo_modify norm no

# NVT
fix 4 all nvt temp 300 300 50
run 2000
Step          Temp          PotEng         Press        f_avgp[1]        Volume
0   311.03947     -41233.769     -2038.6879      0              3775.9495
Averages over the last 11 of 21 rows, steps 1000 to 2000:
Temp PotEng Press f_avgp[1] Volume
298.824 -41249.9 -2324.95 -2429.98 3775.95
Loop time of 98.2511 on 8 procs for 2000 steps with 350 atoms

# Obtain new stress tensor, convert index from LAMMPS to Voigt
variable pxx1 equal f_avgp[1]
variable pyy1 equal f_avgp[2]
variable pzz1 equal f_avgp[3]
variable pxy1 equal f_avgp[4]
variable pxz1 equal f_avgp[5]
variable pyz1 equal f_avgp[6]

# Compute elastic constant from pressure tensor
# d1 = -[pxx1-pxx0]/[(]v_delta/v_len0] defined in input script
variable C1pos equal 36.475459048927
variable C2pos equal -29.4602798945451
variable C3pos equal 54.7151757029292
variable C4pos equal 15.9018708705082
variable C5pos equal -22.9341342791816
variable C6pos equal 11.2577048493079

# Combine positive and negative
variable C11 equal 0.5*(-44.7224675384467+36.475459048927)
variable C21 equal 0.5*(33.7034226117595+-29.4602798945451)
variable C31 equal 0.5*(-16.9462808479382+54.7151757029292)
variable C41 equal 0.5*(-3.66171372108444+15.9018708705082)
variable C51 equal 0.5*(16.6693047296377+-22.9341342791816)
variable C61 equal 0.5*(-26.1862964419686+11.2577048493079)

# Delete dir to make sure it is not reused
variable dir delete
# uyy Perturbation
variable dir equal 2
include displace.mod.lmp
# Find which reference length to use
variable len0 equal 13.4170067184353

# Reset box and simulation parameters
clear
# box tilt large
read_restart equil.res
Reading restart file ...
  restart file = 2 Aug 2023, LAMMPS = 2 Aug 2023
  restoring atom style full from restart
  triclinic box = (0.069742272 0.40119664 -0.14695996) to (15.608458 13.818203 17.78526) with tilt (-7.7490667 -1.5378211 0.14232347)
  pair style reaxff stores no restart info
  350 atoms
Finding 1-2 1-3 1-4 neighbors ...
     0 = max # of 1-2 neighbors
     0 = max # of 1-3 neighbors
     0 = max # of 1-4 neighbors
     1 = max # of special neighbors
  read_restart CPU = 0.003 seconds
*****Negative-change 2 starts.*****
include ff.mod.lmp
# Setup forcefield, system
# undefine any fix ave/* fix before using reset_timestep
if "$(is_defined(fix,avgp))" then "unfix avgp"
reset_timestep 0

# Assign the force field
pair_style reaxff NULL safezone 3.0 mincap 150
# pair_coeff * * CHONSSi.ff O Si
# pair_coeff * * CHOSiNa.ff O Si
# pair_coeff * * SiOCHN_2018.ff O Si
# pair_coeff * * PDMSDecomp.ff Si O
pair_coeff * * CHONSi.ff C H O Si
# pair_coeff * * CHOFe.ff O Si

# charge method for reaxff
fix myqeq all qeq/reaxff 1 0.0 10.0 1.0e-6 reaxff maxiter 400
# Setup neighbor style
neighbor        2 bin
neigh_modify    every 10 delay 0 check no

# Setup output
fix avgp all ave/time  10 10 100 c_thermo_press mode vector
thermo		100
thermo_style custom step temp pe press f_avgp[1] vol
thermo_modify norm no

# NVT
fix 4 all nvt temp 300 300 50
  fix style: nvt, fix ID: 4

# Negative deformation
variable delta equal -0.01*13.4170067184353
variable deltaxy equal -0.01*xy
variable deltaxz equal -0.01*xz
variable deltayz equal -0.01*yz
change_box all y delta 0 -0.134170067184353 yz delta -0.00142323467109325 remap units box
Changing box ...
  triclinic box = (0.069742272 0.40119664 -0.14695996) to (15.608458 13.684033 17.78526) with tilt (-7.7490667 -1.5378211 0.14232347)
  triclinic box = (0.069742272 0.40119664 -0.14695996) to (15.608458 13.684033 17.78526) with tilt (-7.7490667 -1.5378211 0.14090023)

# Run MD for Negative deformation
# save trajectory
dump dump_neg2 all custom 100 dump/neg_deform2.lammpstrj id type x y z
run 2000
All restart file global fix info was re-assigned
Step          Temp          PotEng         Press        f_avgp[1]        Volume
0   289.20158     -41241.598      45829.511      0              3701.1783
Averages over the last 11 of 21 rows, steps 1000 to 2000:
Temp PotEng Press f_avgp[1] Volume
298.714 -41257.4 3081.4 305.682 3701.18
Loop time of 99.0305 on 8 procs for 2000 steps with 350 atoms

undump dump_neg2

# Run equilibration
*****Equilibration neg2 starts.*****
include ff.mod.lmp
# Setup forcefield, system
# undefine any fix ave/* fix before using reset_timestep
if "$(is_defined(fix,avgp))" then "unfix avgp"
unfix avgp
reset_timestep 0

# Assign the force field
pair_style reaxff NULL safezone 3.0 mincap 150
# pair_coeff * * CHONSSi.ff O Si
# pair_coeff * * CHOSiNa.ff O Si
# pair_coeff * * SiOCHN_2018.ff O Si
# pair_coeff * * PDMSDecomp.ff Si O
pair_coeff * * CHONSi.ff C H O Si
# pair_coeff * * CHOFe.ff O Si

# charge method for reaxff
fix myqeq all qeq/reaxff 1 0.0 10.0 1.0e-6 reaxff maxiter 400
# Setup neighbor style
neighbor        2 bin
neigh_modify    every 10 delay 0 check no

# Setup output
fix avgp all ave/time  10 10 100 c_thermo_press mode vector
thermo		100
thermo_style custom step temp pe press f_avgp[1] vol
thermo_modify norm no

# NVT
fix 4 all nvt temp 300 300 50
run 2000
Step          Temp          PotEng         Press        f_avgp[1]        Volume
0   285.22419     -41269.387      995.71521      0              3701.1783
Averages over the last 11 of 21 rows, steps 1000 to 2000:
Temp PotEng Press f_avgp[1] Volume
301.593 -41266.7 -210.882 -565.63 3701.18
Loop time of 98.9077 on 8 procs for 2000 steps with 350 atoms

# Obtain new stress tensor Negative deformation, convert index from LAMMPS to Voigt
variable pxx1 equal f_avgp[1]
variable pyy1 equal f_avgp[2]
variable pzz1 equal f_avgp[3]
variable pxy1 equal f_avgp[4]
variable pxz1 equal f_avgp[5]
variable pyz1 equal f_avgp[6]

# Compute elastic constant from pressure
# d1 = -[pxx1-pxx0]/[(]v_delta/v_len0] defined in input script
variable C1neg equal -33.6188797916664
variable C2neg equal 72.9459989722896
variable C3neg equal -19.3262085755424
variable C4neg equal 12.6909711102968
variable C5neg equal 10.8895887531292
variable C6neg equal -2.83614848848581

# Reset box and simulation parameters
clear
# box tilt large
read_restart equil.res
Reading restart file ...
  restart file = 2 Aug 2023, LAMMPS = 2 Aug 2023
  restoring atom style full from restart
  triclinic box = (0.069742272 0.40119664 -0.14695996) to (15.608458 13.818203 17.78526) with tilt (-7.7490667 -1.5378211 0.14232347)
  pair style reaxff stores no restart info
  350 atoms
Finding 1-2 1-3 1-4 neighbors ...
     0 = max # of 1-2 neighbors
     0 = max # of 1-3 neighbors
     0 = max # of 1-4 neighbors
     1 = max # of special neighbors
  read_restart CPU = 0.003 seconds
*****Positive-change 2 starts.*****
include ff.mod.lmp
# Setup forcefield, system
# undefine any fix ave/* fix before using reset_timestep
if "$(is_defined(fix,avgp))" then "unfix avgp"
reset_timestep 0

# Assign the force field
pair_style reaxff NULL safezone 3.0 mincap 150
# pair_coeff * * CHONSSi.ff O Si
# pair_coeff * * CHOSiNa.ff O Si
# pair_coeff * * SiOCHN_2018.ff O Si
# pair_coeff * * PDMSDecomp.ff Si O
pair_coeff * * CHONSi.ff C H O Si
# pair_coeff * * CHOFe.ff O Si

# charge method for reaxff
fix myqeq all qeq/reaxff 1 0.0 10.0 1.0e-6 reaxff maxiter 400
# Setup neighbor style
neighbor        2 bin
neigh_modify    every 10 delay 0 check no

# Setup output
fix avgp all ave/time  10 10 100 c_thermo_press mode vector
thermo		100
thermo_style custom step temp pe press f_avgp[1] vol
thermo_modify norm no

# NVT
fix 4 all nvt temp 300 300 50
  fix style: nvt, fix ID: 4

# Positive deformation
variable delta equal 0.01*13.4170067184353
variable deltaxy equal 0.01*xy
variable deltaxz equal 0.01*xz
variable deltayz equal 0.01*yz
change_box all y delta 0 0.134170067184353 yz delta 0.00142323467109325 remap units box
Changing box ...
  triclinic box = (0.069742272 0.40119664 -0.14695996) to (15.608458 13.952373 17.78526) with tilt (-7.7490667 -1.5378211 0.14232347)
  triclinic box = (0.069742272 0.40119664 -0.14695996) to (15.608458 13.952373 17.78526) with tilt (-7.7490667 -1.5378211 0.1437467)

# Run positive deformation MD
# save trajectory
dump dump_pos2 all custom 100 dump/pos_deform2.lammpstrj id type x y z
run 2000
All restart file global fix info was re-assigned
Step          Temp          PotEng         Press        f_avgp[1]        Volume
0   289.20158     -41223.42      -47221.3        0              3775.9495
Averages over the last 11 of 21 rows, steps 1000 to 2000:
Temp PotEng Press f_avgp[1] Volume
296.155 -41231 -849.432 -3055.52 3775.95
Loop time of 94.8775 on 8 procs for 2000 steps with 350 atoms

undump dump_pos2

# Run equilibration
*****Equilibration pos2 starts.*****
include ff.mod.lmp
# Setup forcefield, system
# undefine any fix ave/* fix before using reset_timestep
if "$(is_defined(fix,avgp))" then "unfix avgp"
unfix avgp
reset_timestep 0

# Assign the force field
pair_style reaxff NULL safezone 3.0 mincap 150
# pair_coeff * * CHONSSi.ff O Si
# pair_coeff * * CHOSiNa.ff O Si
# pair_coeff * * SiOCHN_2018.ff O Si
# pair_coeff * * PDMSDecomp.ff Si O
pair_coeff * * CHONSi.ff C H O Si
# pair_coeff * * CHOFe.ff O Si

# charge method for reaxff
fix myqeq all qeq/reaxff 1 0.0 10.0 1.0e-6 reaxff maxiter 400
# Setup neighbor style
neighbor        2 bin
neigh_modify    every 10 delay 0 check no

# Setup output
fix avgp all ave/time  10 10 100 c_thermo_press mode vector
thermo		100
thermo_style custom step temp pe press f_avgp[1] vol
thermo_modify norm no

# NVT
fix 4 all nvt temp 300 300 50
run 2000
Step          Temp          PotEng         Press        f_avgp[1]        Volume
0   290.46513     -41253.277      3601.9433      0              3775.9495
Averages over the last 11 of 21 rows, steps 1000 to 2000:
Temp PotEng Press f_avgp[1] Volume
296.992 -41246.5 -5873.49 -1208.64 3775.95
Loop time of 94.2739 on 8 procs for 2000 steps with 350 atoms

# Obtain new stress tensor, convert index from LAMMPS to Voigt
variable pxx1 equal f_avgp[1]
variable pyy1 equal f_avgp[2]
variable pzz1 equal f_avgp[3]
variable pxy1 equal f_avgp[4]
variable pxz1 equal f_avgp[5]
variable pyz1 equal f_avgp[6]

# Compute elastic constant from pressure tensor
# d1 = -[pxx1-pxx0]/[(]v_delta/v_len0] defined in input script
variable C1pos equal -1.77259593700631
variable C2pos equal -33.8275920543438
variable C3pos equal 6.18928605703525
variable C4pos equal -4.15105164558896
variable C5pos equal 0.16258480218166
variable C6pos equal 21.9902622895498

# Combine positive and negative
variable C12 equal 0.5*(-33.6188797916664+-1.77259593700631)
variable C22 equal 0.5*(72.9459989722896+-33.8275920543438)
variable C32 equal 0.5*(-19.3262085755424+6.18928605703525)
variable C42 equal 0.5*(12.6909711102968+-4.15105164558896)
variable C52 equal 0.5*(10.8895887531292+0.16258480218166)
variable C62 equal 0.5*(-2.83614848848581+21.9902622895498)

# Delete dir to make sure it is not reused
variable dir delete
# uzz Perturbation
variable dir equal 3
include displace.mod.lmp
# Find which reference length to use
variable len0 equal 17.9322199223083

# Reset box and simulation parameters
clear
# box tilt large
read_restart equil.res
Reading restart file ...
  restart file = 2 Aug 2023, LAMMPS = 2 Aug 2023
  restoring atom style full from restart
  triclinic box = (0.069742272 0.40119664 -0.14695996) to (15.608458 13.818203 17.78526) with tilt (-7.7490667 -1.5378211 0.14232347)
  pair style reaxff stores no restart info
  350 atoms
Finding 1-2 1-3 1-4 neighbors ...
     0 = max # of 1-2 neighbors
     0 = max # of 1-3 neighbors
     0 = max # of 1-4 neighbors
     1 = max # of special neighbors
  read_restart CPU = 0.003 seconds
*****Negative-change 3 starts.*****
include ff.mod.lmp
# Setup forcefield, system
# undefine any fix ave/* fix before using reset_timestep
if "$(is_defined(fix,avgp))" then "unfix avgp"
reset_timestep 0

# Assign the force field
pair_style reaxff NULL safezone 3.0 mincap 150
# pair_coeff * * CHONSSi.ff O Si
# pair_coeff * * CHOSiNa.ff O Si
# pair_coeff * * SiOCHN_2018.ff O Si
# pair_coeff * * PDMSDecomp.ff Si O
pair_coeff * * CHONSi.ff C H O Si
# pair_coeff * * CHOFe.ff O Si

# charge method for reaxff
fix myqeq all qeq/reaxff 1 0.0 10.0 1.0e-6 reaxff maxiter 400
# Setup neighbor style
neighbor        2 bin
neigh_modify    every 10 delay 0 check no

# Setup output
fix avgp all ave/time  10 10 100 c_thermo_press mode vector
thermo		100
thermo_style custom step temp pe press f_avgp[1] vol
thermo_modify norm no

# NVT
fix 4 all nvt temp 300 300 50
  fix style: nvt, fix ID: 4

# Negative deformation
variable delta equal -0.01*17.9322199223083
variable deltaxy equal -0.01*xy
variable deltaxz equal -0.01*xz
variable deltayz equal -0.01*yz
change_box all z delta 0 -0.179322199223083 remap units box
Changing box ...
  triclinic box = (0.069742272 0.40119664 -0.14695996) to (15.608458 13.818203 17.605938) with tilt (-7.7490667 -1.5378211 0.14232347)

# Run MD for Negative deformation
# save trajectory
dump dump_neg3 all custom 100 dump/neg_deform3.lammpstrj id type x y z
run 2000
All restart file global fix info was re-assigned
Step          Temp          PotEng         Press        f_avgp[1]        Volume
0   289.20158     -41231.328      52325.507      0              3701.1783
Averages over the last 11 of 21 rows, steps 1000 to 2000:
Temp PotEng Press f_avgp[1] Volume
301.288 -41254.5 -1638.7 -307.32 3701.18
Loop time of 97.4379 on 8 procs for 2000 steps with 350 atoms

undump dump_neg3

# Run equilibration
*****Equilibration neg3 starts.*****
include ff.mod.lmp
# Setup forcefield, system
# undefine any fix ave/* fix before using reset_timestep
if "$(is_defined(fix,avgp))" then "unfix avgp"
unfix avgp
reset_timestep 0

# Assign the force field
pair_style reaxff NULL safezone 3.0 mincap 150
# pair_coeff * * CHONSSi.ff O Si
# pair_coeff * * CHOSiNa.ff O Si
# pair_coeff * * SiOCHN_2018.ff O Si
# pair_coeff * * PDMSDecomp.ff Si O
pair_coeff * * CHONSi.ff C H O Si
# pair_coeff * * CHOFe.ff O Si

# charge method for reaxff
fix myqeq all qeq/reaxff 1 0.0 10.0 1.0e-6 reaxff maxiter 400
# Setup neighbor style
neighbor        2 bin
neigh_modify    every 10 delay 0 check no

# Setup output
fix avgp all ave/time  10 10 100 c_thermo_press mode vector
thermo		100
thermo_style custom step temp pe press f_avgp[1] vol
thermo_modify norm no

# NVT
fix 4 all nvt temp 300 300 50
run 2000
Step          Temp          PotEng         Press        f_avgp[1]        Volume
0   301.46042     -41249.694     -5964.6102      0              3701.1783
Averages over the last 11 of 21 rows, steps 1000 to 2000:
Temp PotEng Press f_avgp[1] Volume
293.08 -41265 -3297.3 -1103.32 3701.18
Loop time of 98.0822 on 8 procs for 2000 steps with 350 atoms

# Obtain new stress tensor Negative deformation, convert index from LAMMPS to Voigt
variable pxx1 equal f_avgp[1]
variable pyy1 equal f_avgp[2]
variable pzz1 equal f_avgp[3]
variable pxy1 equal f_avgp[4]
variable pxz1 equal f_avgp[5]
variable pyz1 equal f_avgp[6]

# Compute elastic constant from pressure
# d1 = -[pxx1-pxx0]/[(]v_delta/v_len0] defined in input script
variable C1neg equal -42.5176745787171
variable C2neg equal -39.7929396666743
variable C3neg equal -10.9283315039613
variable C4neg equal 2.73615232442986
variable C5neg equal 17.3055922304465
variable C6neg equal -6.02062733819557

# Reset box and simulation parameters
clear
# box tilt large
read_restart equil.res
Reading restart file ...
  restart file = 2 Aug 2023, LAMMPS = 2 Aug 2023
  restoring atom style full from restart
  triclinic box = (0.069742272 0.40119664 -0.14695996) to (15.608458 13.818203 17.78526) with tilt (-7.7490667 -1.5378211 0.14232347)
  pair style reaxff stores no restart info
  350 atoms
Finding 1-2 1-3 1-4 neighbors ...
     0 = max # of 1-2 neighbors
     0 = max # of 1-3 neighbors
     0 = max # of 1-4 neighbors
     1 = max # of special neighbors
  read_restart CPU = 0.003 seconds
*****Positive-change 3 starts.*****
include ff.mod.lmp
# Setup forcefield, system
# undefine any fix ave/* fix before using reset_timestep
if "$(is_defined(fix,avgp))" then "unfix avgp"
reset_timestep 0

# Assign the force field
pair_style reaxff NULL safezone 3.0 mincap 150
# pair_coeff * * CHONSSi.ff O Si
# pair_coeff * * CHOSiNa.ff O Si
# pair_coeff * * SiOCHN_2018.ff O Si
# pair_coeff * * PDMSDecomp.ff Si O
pair_coeff * * CHONSi.ff C H O Si
# pair_coeff * * CHOFe.ff O Si

# charge method for reaxff
fix myqeq all qeq/reaxff 1 0.0 10.0 1.0e-6 reaxff maxiter 400
# Setup neighbor style
neighbor        2 bin
neigh_modify    every 10 delay 0 check no

# Setup output
fix avgp all ave/time  10 10 100 c_thermo_press mode vector
thermo		100
thermo_style custom step temp pe press f_avgp[1] vol
thermo_modify norm no

# NVT
fix 4 all nvt temp 300 300 50
  fix style: nvt, fix ID: 4

# Positive deformation
variable delta equal 0.01*17.9322199223083
variable deltaxy equal 0.01*xy
variable deltaxz equal 0.01*xz
variable deltayz equal 0.01*yz
change_box all z delta 0 0.179322199223083 remap units box
Changing box ...
  triclinic box = (0.069742272 0.40119664 -0.14695996) to (15.608458 13.818203 17.964582) with tilt (-7.7490667 -1.5378211 0.14232347)

# Run positive deformation MD
# save trajectory
dump dump_pos3 all custom 100 dump/pos_deform3.lammpstrj id type x y z
run 2000
All restart file global fix info was re-assigned
Step          Temp          PotEng         Press        f_avgp[1]        Volume
0   289.20158     -41229.169     -49979.596      0              3775.9495
Averages over the last 11 of 21 rows, steps 1000 to 2000:
Temp PotEng Press f_avgp[1] Volume
299.228 -41241 -4091.57 -2169.53 3775.95
Loop time of 94.6408 on 8 procs for 2000 steps with 350 atoms

undump dump_pos3

# Run equilibration
*****Equilibration pos3 starts.*****
include ff.mod.lmp
# Setup forcefield, system
# undefine any fix ave/* fix before using reset_timestep
if "$(is_defined(fix,avgp))" then "unfix avgp"
unfix avgp
reset_timestep 0

# Assign the force field
pair_style reaxff NULL safezone 3.0 mincap 150
# pair_coeff * * CHONSSi.ff O Si
# pair_coeff * * CHOSiNa.ff O Si
# pair_coeff * * SiOCHN_2018.ff O Si
# pair_coeff * * PDMSDecomp.ff Si O
pair_coeff * * CHONSi.ff C H O Si
# pair_coeff * * CHOFe.ff O Si

# charge method for reaxff
fix myqeq all qeq/reaxff 1 0.0 10.0 1.0e-6 reaxff maxiter 400
# Setup neighbor style
neighbor        2 bin
neigh_modify    every 10 delay 0 check no

# Setup output
fix avgp all ave/time  10 10 100 c_thermo_press mode vector
thermo		100
thermo_style custom step temp pe press f_avgp[1] vol
thermo_modify norm no

# NVT
fix 4 all nvt temp 300 300 50
run 2000
Step          Temp          PotEng         Press        f_avgp[1]        Volume
0   308.08308     -41222.262     -14316.644      0              3775.9495
Averages over the last 11 of 21 rows, steps 1000 to 2000:
Temp PotEng Press f_avgp[1] Volume
297.618 -41260.8 -2789.09 -866.632 3775.95
Loop time of 94.5063 on 8 procs for 2000 steps with 350 atoms

# Obtain new stress tensor, convert index from LAMMPS to Voigt
variable pxx1 equal f_avgp[1]
variable pyy1 equal f_avgp[2]
variable pzz1 equal f_avgp[3]
variable pxy1 equal f_avgp[4]
variable pxz1 equal f_avgp[5]
variable pyz1 equal f_avgp[6]

# Compute elastic constant from pressure tensor
# d1 = -[pxx1-pxx0]/[(]v_delta/v_len0] defined in input script
variable C1pos equal -29.4579370926835
variable C2pos equal -21.9064227396521
variable C3pos equal 26.0849897991452
variable C4pos equal -2.09789777792015
variable C5pos equal -4.75835560920035
variable C6pos equal 0.796035122482743

# Combine positive and negative
variable C13 equal 0.5*(-42.5176745787171+-29.4579370926835)
variable C23 equal 0.5*(-39.7929396666743+-21.9064227396521)
variable C33 equal 0.5*(-10.9283315039613+26.0849897991452)
variable C43 equal 0.5*(2.73615232442986+-2.09789777792015)
variable C53 equal 0.5*(17.3055922304465+-4.75835560920035)
variable C63 equal 0.5*(-6.02062733819557+0.796035122482743)

# Delete dir to make sure it is not reused
variable dir delete
# uyz Perturbation
variable dir equal 4
include displace.mod.lmp
# Find which reference length to use
variable len0 equal 17.9322199223083

# Reset box and simulation parameters
clear
# box tilt large
read_restart equil.res
Reading restart file ...
  restart file = 2 Aug 2023, LAMMPS = 2 Aug 2023
  restoring atom style full from restart
  triclinic box = (0.069742272 0.40119664 -0.14695996) to (15.608458 13.818203 17.78526) with tilt (-7.7490667 -1.5378211 0.14232347)
  pair style reaxff stores no restart info
  350 atoms
Finding 1-2 1-3 1-4 neighbors ...
     0 = max # of 1-2 neighbors
     0 = max # of 1-3 neighbors
     0 = max # of 1-4 neighbors
     1 = max # of special neighbors
  read_restart CPU = 0.003 seconds
*****Negative-change 4 starts.*****
include ff.mod.lmp
# Setup forcefield, system
# undefine any fix ave/* fix before using reset_timestep
if "$(is_defined(fix,avgp))" then "unfix avgp"
reset_timestep 0

# Assign the force field
pair_style reaxff NULL safezone 3.0 mincap 150
# pair_coeff * * CHONSSi.ff O Si
# pair_coeff * * CHOSiNa.ff O Si
# pair_coeff * * SiOCHN_2018.ff O Si
# pair_coeff * * PDMSDecomp.ff Si O
pair_coeff * * CHONSi.ff C H O Si
# pair_coeff * * CHOFe.ff O Si

# charge method for reaxff
fix myqeq all qeq/reaxff 1 0.0 10.0 1.0e-6 reaxff maxiter 400
# Setup neighbor style
neighbor        2 bin
neigh_modify    every 10 delay 0 check no

# Setup output
fix avgp all ave/time  10 10 100 c_thermo_press mode vector
thermo		100
thermo_style custom step temp pe press f_avgp[1] vol
thermo_modify norm no

# NVT
fix 4 all nvt temp 300 300 50
  fix style: nvt, fix ID: 4

# Negative deformation
variable delta equal -0.01*17.9322199223083
variable deltaxy equal -0.01*xy
variable deltaxz equal -0.01*xz
variable deltayz equal -0.01*yz
change_box all yz delta -0.179322199223083 remap units box
Changing box ...
  triclinic box = (0.069742272 0.40119664 -0.14695996) to (15.608458 13.818203 17.78526) with tilt (-7.7490667 -1.5378211 -0.036998732)

# Run MD for Negative deformation
# save trajectory
dump dump_neg4 all custom 100 dump/neg_deform4.lammpstrj id type x y z
run 2000
All restart file global fix info was re-assigned
Step          Temp          PotEng         Press        f_avgp[1]        Volume
0   289.20158     -41250.106     -5161.3091      0              3738.5639
Averages over the last 11 of 21 rows, steps 1000 to 2000:
Temp PotEng Press f_avgp[1] Volume
307.529 -41250.7 -2140.02 -746.188 3738.56
Loop time of 96.7349 on 8 procs for 2000 steps with 350 atoms

undump dump_neg4

# Run equilibration
*****Equilibration neg4 starts.*****
include ff.mod.lmp
# Setup forcefield, system
# undefine any fix ave/* fix before using reset_timestep
if "$(is_defined(fix,avgp))" then "unfix avgp"
unfix avgp
reset_timestep 0

# Assign the force field
pair_style reaxff NULL safezone 3.0 mincap 150
# pair_coeff * * CHONSSi.ff O Si
# pair_coeff * * CHOSiNa.ff O Si
# pair_coeff * * SiOCHN_2018.ff O Si
# pair_coeff * * PDMSDecomp.ff Si O
pair_coeff * * CHONSi.ff C H O Si
# pair_coeff * * CHOFe.ff O Si

# charge method for reaxff
fix myqeq all qeq/reaxff 1 0.0 10.0 1.0e-6 reaxff maxiter 400
# Setup neighbor style
neighbor        2 bin
neigh_modify    every 10 delay 0 check no

# Setup output
fix avgp all ave/time  10 10 100 c_thermo_press mode vector
thermo		100
thermo_style custom step temp pe press f_avgp[1] vol
thermo_modify norm no

# NVT
fix 4 all nvt temp 300 300 50
run 2000
Step          Temp          PotEng         Press        f_avgp[1]        Volume
0   309.11638     -41262.339      8004.9768      0              3738.5639
Averages over the last 11 of 21 rows, steps 1000 to 2000:
Temp PotEng Press f_avgp[1] Volume
292.843 -41251.3 -3041.16 -1379.94 3738.56
Loop time of 96.3662 on 8 procs for 2000 steps with 350 atoms

# Obtain new stress tensor Negative deformation, convert index from LAMMPS to Voigt
variable pxx1 equal f_avgp[1]
variable pyy1 equal f_avgp[2]
variable pzz1 equal f_avgp[3]
variable pxy1 equal f_avgp[4]
variable pxz1 equal f_avgp[5]
variable pyz1 equal f_avgp[6]

# Compute elastic constant from pressure
# d1 = -[pxx1-pxx0]/[(]v_delta/v_len0] defined in input script
variable C1neg equal -55.0261763748019
variable C2neg equal 21.7085331901865
variable C3neg equal 15.287051827765
variable C4neg equal 0.0938834886220303
variable C5neg equal 16.1547880453947
variable C6neg equal -13.4106392933985

# Reset box and simulation parameters
clear
# box tilt large
read_restart equil.res
Reading restart file ...
  restart file = 2 Aug 2023, LAMMPS = 2 Aug 2023
  restoring atom style full from restart
  triclinic box = (0.069742272 0.40119664 -0.14695996) to (15.608458 13.818203 17.78526) with tilt (-7.7490667 -1.5378211 0.14232347)
  pair style reaxff stores no restart info
  350 atoms
Finding 1-2 1-3 1-4 neighbors ...
     0 = max # of 1-2 neighbors
     0 = max # of 1-3 neighbors
     0 = max # of 1-4 neighbors
     1 = max # of special neighbors
  read_restart CPU = 0.002 seconds
*****Positive-change 4 starts.*****
include ff.mod.lmp
# Setup forcefield, system
# undefine any fix ave/* fix before using reset_timestep
if "$(is_defined(fix,avgp))" then "unfix avgp"
reset_timestep 0

# Assign the force field
pair_style reaxff NULL safezone 3.0 mincap 150
# pair_coeff * * CHONSSi.ff O Si
# pair_coeff * * CHOSiNa.ff O Si
# pair_coeff * * SiOCHN_2018.ff O Si
# pair_coeff * * PDMSDecomp.ff Si O
pair_coeff * * CHONSi.ff C H O Si
# pair_coeff * * CHOFe.ff O Si

# charge method for reaxff
fix myqeq all qeq/reaxff 1 0.0 10.0 1.0e-6 reaxff maxiter 400
# Setup neighbor style
neighbor        2 bin
neigh_modify    every 10 delay 0 check no

# Setup output
fix avgp all ave/time  10 10 100 c_thermo_press mode vector
thermo		100
thermo_style custom step temp pe press f_avgp[1] vol
thermo_modify norm no

# NVT
fix 4 all nvt temp 300 300 50
  fix style: nvt, fix ID: 4

# Positive deformation
variable delta equal 0.01*17.9322199223083
variable deltaxy equal 0.01*xy
variable deltaxz equal 0.01*xz
variable deltayz equal 0.01*yz
change_box all yz delta 0.179322199223083 remap units box
Changing box ...
  triclinic box = (0.069742272 0.40119664 -0.14695996) to (15.608458 13.818203 17.78526) with tilt (-7.7490667 -1.5378211 0.32164567)

# Run positive deformation MD
# save trajectory
dump dump_pos4 all custom 100 dump/pos_deform4.lammpstrj id type x y z
run 2000
All restart file global fix info was re-assigned
Step          Temp          PotEng         Press        f_avgp[1]        Volume
0   289.20158     -41240.272     -3567.7984      0              3738.5639
Averages over the last 11 of 21 rows, steps 1000 to 2000:
Temp PotEng Press f_avgp[1] Volume
296.774 -41253.6 894.344 -446.969 3738.56
Loop time of 96.5564 on 8 procs for 2000 steps with 350 atoms

undump dump_pos4

# Run equilibration
*****Equilibration pos4 starts.*****
include ff.mod.lmp
# Setup forcefield, system
# undefine any fix ave/* fix before using reset_timestep
if "$(is_defined(fix,avgp))" then "unfix avgp"
unfix avgp
reset_timestep 0

# Assign the force field
pair_style reaxff NULL safezone 3.0 mincap 150
# pair_coeff * * CHONSSi.ff O Si
# pair_coeff * * CHOSiNa.ff O Si
# pair_coeff * * SiOCHN_2018.ff O Si
# pair_coeff * * PDMSDecomp.ff Si O
pair_coeff * * CHONSi.ff C H O Si
# pair_coeff * * CHOFe.ff O Si

# charge method for reaxff
fix myqeq all qeq/reaxff 1 0.0 10.0 1.0e-6 reaxff maxiter 400
# Setup neighbor style
neighbor        2 bin
neigh_modify    every 10 delay 0 check no

# Setup output
fix avgp all ave/time  10 10 100 c_thermo_press mode vector
thermo		100
thermo_style custom step temp pe press f_avgp[1] vol
thermo_modify norm no

# NVT
fix 4 all nvt temp 300 300 50
run 2000
Step          Temp          PotEng         Press        f_avgp[1]        Volume
0   285.0299      -41269.196     -2841.894       0              3738.5639
Averages over the last 11 of 21 rows, steps 1000 to 2000:
Temp PotEng Press f_avgp[1] Volume
302.33 -41260.9 -2732.11 770.585 3738.56
Loop time of 96.0947 on 8 procs for 2000 steps with 350 atoms

# Obtain new stress tensor, convert index from LAMMPS to Voigt
variable pxx1 equal f_avgp[1]
variable pyy1 equal f_avgp[2]
variable pzz1 equal f_avgp[3]
variable pxy1 equal f_avgp[4]
variable pxz1 equal f_avgp[5]
variable pyz1 equal f_avgp[6]

# Compute elastic constant from pressure tensor
# d1 = -[pxx1-pxx0]/[(]v_delta/v_len0] defined in input script
variable C1pos equal -18.0943357344672
variable C2pos equal -12.2563084398773
variable C3pos equal 29.781892873248
variable C4pos equal 2.97806088829475
variable C5pos equal -3.77517374000395
variable C6pos equal 9.27607208107333

# Combine positive and negative
variable C14 equal 0.5*(-55.0261763748019+-18.0943357344672)
variable C24 equal 0.5*(21.7085331901865+-12.2563084398773)
variable C34 equal 0.5*(15.287051827765+29.781892873248)
variable C44 equal 0.5*(0.0938834886220303+2.97806088829475)
variable C54 equal 0.5*(16.1547880453947+-3.77517374000395)
variable C64 equal 0.5*(-13.4106392933985+9.27607208107333)

# Delete dir to make sure it is not reused
variable dir delete
# uxz Perturbation
variable dir equal 5
include displace.mod.lmp
# Find which reference length to use
variable len0 equal 17.9322199223083

# Reset box and simulation parameters
clear
# box tilt large
read_restart equil.res
Reading restart file ...
  restart file = 2 Aug 2023, LAMMPS = 2 Aug 2023
  restoring atom style full from restart
  triclinic box = (0.069742272 0.40119664 -0.14695996) to (15.608458 13.818203 17.78526) with tilt (-7.7490667 -1.5378211 0.14232347)
  pair style reaxff stores no restart info
  350 atoms
Finding 1-2 1-3 1-4 neighbors ...
     0 = max # of 1-2 neighbors
     0 = max # of 1-3 neighbors
     0 = max # of 1-4 neighbors
     1 = max # of special neighbors
  read_restart CPU = 0.002 seconds
*****Negative-change 5 starts.*****
include ff.mod.lmp
# Setup forcefield, system
# undefine any fix ave/* fix before using reset_timestep
if "$(is_defined(fix,avgp))" then "unfix avgp"
reset_timestep 0

# Assign the force field
pair_style reaxff NULL safezone 3.0 mincap 150
# pair_coeff * * CHONSSi.ff O Si
# pair_coeff * * CHOSiNa.ff O Si
# pair_coeff * * SiOCHN_2018.ff O Si
# pair_coeff * * PDMSDecomp.ff Si O
pair_coeff * * CHONSi.ff C H O Si
# pair_coeff * * CHOFe.ff O Si

# charge method for reaxff
fix myqeq all qeq/reaxff 1 0.0 10.0 1.0e-6 reaxff maxiter 400
# Setup neighbor style
neighbor        2 bin
neigh_modify    every 10 delay 0 check no

# Setup output
fix avgp all ave/time  10 10 100 c_thermo_press mode vector
thermo		100
thermo_style custom step temp pe press f_avgp[1] vol
thermo_modify norm no

# NVT
fix 4 all nvt temp 300 300 50
  fix style: nvt, fix ID: 4

# Negative deformation
variable delta equal -0.01*17.9322199223083
variable deltaxy equal -0.01*xy
variable deltaxz equal -0.01*xz
variable deltayz equal -0.01*yz
change_box all xz delta -0.179322199223083 remap units box
Changing box ...
  triclinic box = (0.069742272 0.40119664 -0.14695996) to (15.608458 13.818203 17.78526) with tilt (-7.7490667 -1.7171433 0.14232347)

# Run MD for Negative deformation
# save trajectory
dump dump_neg5 all custom 100 dump/neg_deform5.lammpstrj id type x y z
run 2000
All restart file global fix info was re-assigned
Step          Temp          PotEng         Press        f_avgp[1]        Volume
0   289.20158     -41248.964     -5563.4172      0              3738.5639
Averages over the last 11 of 21 rows, steps 1000 to 2000:
Temp PotEng Press f_avgp[1] Volume
301.609 -41255.3 -889.493 -336.38 3738.56
Loop time of 95.9532 on 8 procs for 2000 steps with 350 atoms

undump dump_neg5

# Run equilibration
*****Equilibration neg5 starts.*****
include ff.mod.lmp
# Setup forcefield, system
# undefine any fix ave/* fix before using reset_timestep
if "$(is_defined(fix,avgp))" then "unfix avgp"
unfix avgp
reset_timestep 0

# Assign the force field
pair_style reaxff NULL safezone 3.0 mincap 150
# pair_coeff * * CHONSSi.ff O Si
# pair_coeff * * CHOSiNa.ff O Si
# pair_coeff * * SiOCHN_2018.ff O Si
# pair_coeff * * PDMSDecomp.ff Si O
pair_coeff * * CHONSi.ff C H O Si
# pair_coeff * * CHOFe.ff O Si

# charge method for reaxff
fix myqeq all qeq/reaxff 1 0.0 10.0 1.0e-6 reaxff maxiter 400
# Setup neighbor style
neighbor        2 bin
neigh_modify    every 10 delay 0 check no

# Setup output
fix avgp all ave/time  10 10 100 c_thermo_press mode vector
thermo		100
thermo_style custom step temp pe press f_avgp[1] vol
thermo_modify norm no

# NVT
fix 4 all nvt temp 300 300 50
run 2000
Step          Temp          PotEng         Press        f_avgp[1]        Volume
0   321.25015     -41253.651      4671.4722      0              3738.5639
Averages over the last 11 of 21 rows, steps 1000 to 2000:
Temp PotEng Press f_avgp[1] Volume
296.444 -41252.8 -3135.73 -2299.36 3738.56
Loop time of 96.2638 on 8 procs for 2000 steps with 350 atoms

# Obtain new stress tensor Negative deformation, convert index from LAMMPS to Voigt
variable pxx1 equal f_avgp[1]
variable pyy1 equal f_avgp[2]
variable pzz1 equal f_avgp[3]
variable pxy1 equal f_avgp[4]
variable pxz1 equal f_avgp[5]
variable pyz1 equal f_avgp[6]

# Compute elastic constant from pressure
# d1 = -[pxx1-pxx0]/[(]v_delta/v_len0] defined in input script
variable C1neg equal -74.6252734820463
variable C2neg equal 18.5635240450488
variable C3neg equal -42.0304628308112
variable C4neg equal 10.5697583283014
variable C5neg equal 18.6726407372351
variable C6neg equal -34.6793060444965

# Reset box and simulation parameters
clear
# box tilt large
read_restart equil.res
Reading restart file ...
  restart file = 2 Aug 2023, LAMMPS = 2 Aug 2023
  restoring atom style full from restart
  triclinic box = (0.069742272 0.40119664 -0.14695996) to (15.608458 13.818203 17.78526) with tilt (-7.7490667 -1.5378211 0.14232347)
  pair style reaxff stores no restart info
  350 atoms
Finding 1-2 1-3 1-4 neighbors ...
     0 = max # of 1-2 neighbors
     0 = max # of 1-3 neighbors
     0 = max # of 1-4 neighbors
     1 = max # of special neighbors
  read_restart CPU = 0.002 seconds
*****Positive-change 5 starts.*****
include ff.mod.lmp
# Setup forcefield, system
# undefine any fix ave/* fix before using reset_timestep
if "$(is_defined(fix,avgp))" then "unfix avgp"
reset_timestep 0

# Assign the force field
pair_style reaxff NULL safezone 3.0 mincap 150
# pair_coeff * * CHONSSi.ff O Si
# pair_coeff * * CHOSiNa.ff O Si
# pair_coeff * * SiOCHN_2018.ff O Si
# pair_coeff * * PDMSDecomp.ff Si O
pair_coeff * * CHONSi.ff C H O Si
# pair_coeff * * CHOFe.ff O Si

# charge method for reaxff
fix myqeq all qeq/reaxff 1 0.0 10.0 1.0e-6 reaxff maxiter 400
# Setup neighbor style
neighbor        2 bin
neigh_modify    every 10 delay 0 check no

# Setup output
fix avgp all ave/time  10 10 100 c_thermo_press mode vector
thermo		100
thermo_style custom step temp pe press f_avgp[1] vol
thermo_modify norm no

# NVT
fix 4 all nvt temp 300 300 50
  fix style: nvt, fix ID: 4

# Positive deformation
variable delta equal 0.01*17.9322199223083
variable deltaxy equal 0.01*xy
variable deltaxz equal 0.01*xz
variable deltayz equal 0.01*yz
change_box all xz delta 0.179322199223083 remap units box
Changing box ...
  triclinic box = (0.069742272 0.40119664 -0.14695996) to (15.608458 13.818203 17.78526) with tilt (-7.7490667 -1.3584989 0.14232347)

# Run positive deformation MD
# save trajectory
dump dump_pos5 all custom 100 dump/pos_deform5.lammpstrj id type x y z
run 2000
All restart file global fix info was re-assigned
Step          Temp          PotEng         Press        f_avgp[1]        Volume
0   289.20158     -41241.427     -3592.3517      0              3738.5639
Averages over the last 11 of 21 rows, steps 1000 to 2000:
Temp PotEng Press f_avgp[1] Volume
295.862 -41256.3 -5262.1 -1557.99 3738.56
Loop time of 95.8993 on 8 procs for 2000 steps with 350 atoms

undump dump_pos5

# Run equilibration
*****Equilibration pos5 starts.*****
include ff.mod.lmp
# Setup forcefield, system
# undefine any fix ave/* fix before using reset_timestep
if "$(is_defined(fix,avgp))" then "unfix avgp"
unfix avgp
reset_timestep 0

# Assign the force field
pair_style reaxff NULL safezone 3.0 mincap 150
# pair_coeff * * CHONSSi.ff O Si
# pair_coeff * * CHOSiNa.ff O Si
# pair_coeff * * SiOCHN_2018.ff O Si
# pair_coeff * * PDMSDecomp.ff Si O
pair_coeff * * CHONSi.ff C H O Si
# pair_coeff * * CHOFe.ff O Si

# charge method for reaxff
fix myqeq all qeq/reaxff 1 0.0 10.0 1.0e-6 reaxff maxiter 400
# Setup neighbor style
neighbor        2 bin
neigh_modify    every 10 delay 0 check no

# Setup output
fix avgp all ave/time  10 10 100 c_thermo_press mode vector
thermo		100
thermo_style custom step temp pe press f_avgp[1] vol
thermo_modify norm no

# NVT
fix 4 all nvt temp 300 300 50
run 2000
Step          Temp          PotEng         Press        f_avgp[1]        Volume
0   303.95245     -41273.918     -5946.0738      0              3738.5639
Averages over the last 11 of 21 rows, steps 1000 to 2000:
Temp PotEng Press f_avgp[1] Volume
295.72 -41259.4 -5156.32 -204.16 3738.56
Loop time of 95.8957 on 8 procs for 2000 steps with 350 atoms

# Obtain new stress tensor, convert index from LAMMPS to Voigt
variable pxx1 equal f_avgp[1]
variable pyy1 equal f_avgp[2]
variable pzz1 equal f_avgp[3]
variable pxy1 equal f_avgp[4]
variable pxz1 equal f_avgp[5]
variable pyz1 equal f_avgp[6]

# Compute elastic constant from pressure tensor
# d1 = -[pxx1-pxx0]/[(]v_delta/v_len0] defined in input script
variable C1pos equal 82.829233197611
variable C2pos equal 29.5385025656599
variable C3pos equal 92.0957835495484
variable C4pos equal -0.0103799975513172
variable C5pos equal -3.25979143868774
variable C6pos equal 5.9405989766787

# Combine positive and negative
variable C15 equal 0.5*(-74.6252734820463+82.829233197611)
variable C25 equal 0.5*(18.5635240450488+29.5385025656599)
variable C35 equal 0.5*(-42.0304628308112+92.0957835495484)
variable C45 equal 0.5*(10.5697583283014+-0.0103799975513172)
variable C55 equal 0.5*(18.6726407372351+-3.25979143868774)
variable C65 equal 0.5*(-34.6793060444965+5.9405989766787)

# Delete dir to make sure it is not reused
variable dir delete
# uxy Perturbation
variable dir equal 6
include displace.mod.lmp
# Find which reference length to use
variable len0 equal 13.4170067184353

# Reset box and simulation parameters
clear
# box tilt large
read_restart equil.res
Reading restart file ...
  restart file = 2 Aug 2023, LAMMPS = 2 Aug 2023
  restoring atom style full from restart
  triclinic box = (0.069742272 0.40119664 -0.14695996) to (15.608458 13.818203 17.78526) with tilt (-7.7490667 -1.5378211 0.14232347)
  pair style reaxff stores no restart info
  350 atoms
Finding 1-2 1-3 1-4 neighbors ...
     0 = max # of 1-2 neighbors
     0 = max # of 1-3 neighbors
     0 = max # of 1-4 neighbors
     1 = max # of special neighbors
  read_restart CPU = 0.003 seconds
*****Negative-change 6 starts.*****
include ff.mod.lmp
# Setup forcefield, system
# undefine any fix ave/* fix before using reset_timestep
if "$(is_defined(fix,avgp))" then "unfix avgp"
reset_timestep 0

# Assign the force field
pair_style reaxff NULL safezone 3.0 mincap 150
# pair_coeff * * CHONSSi.ff O Si
# pair_coeff * * CHOSiNa.ff O Si
# pair_coeff * * SiOCHN_2018.ff O Si
# pair_coeff * * PDMSDecomp.ff Si O
pair_coeff * * CHONSi.ff C H O Si
# pair_coeff * * CHOFe.ff O Si

# charge method for reaxff
fix myqeq all qeq/reaxff 1 0.0 10.0 1.0e-6 reaxff maxiter 400
# Setup neighbor style
neighbor        2 bin
neigh_modify    every 10 delay 0 check no

# Setup output
fix avgp all ave/time  10 10 100 c_thermo_press mode vector
thermo		100
thermo_style custom step temp pe press f_avgp[1] vol
thermo_modify norm no

# NVT
fix 4 all nvt temp 300 300 50
  fix style: nvt, fix ID: 4

# Negative deformation
variable delta equal -0.01*13.4170067184353
variable deltaxy equal -0.01*xy
variable deltaxz equal -0.01*xz
variable deltayz equal -0.01*yz
change_box all xy delta -0.134170067184353 remap units box
Changing box ...
  triclinic box = (0.069742272 0.40119664 -0.14695996) to (15.608458 13.818203 17.78526) with tilt (-7.8832367 -1.5378211 0.14232347)

# Run MD for Negative deformation
# save trajectory
dump dump_neg6 all custom 100 dump/neg_deform6.lammpstrj id type x y z
run 2000
All restart file global fix info was re-assigned
Step          Temp          PotEng         Press        f_avgp[1]        Volume
0   289.20158     -41245.831     -3188.5806      0              3738.5639
Averages over the last 11 of 21 rows, steps 1000 to 2000:
Temp PotEng Press f_avgp[1] Volume
299.253 -41248.7 -1784.13 -1015.14 3738.56
Loop time of 96.2269 on 8 procs for 2000 steps with 350 atoms

undump dump_neg6

# Run equilibration
*****Equilibration neg6 starts.*****
include ff.mod.lmp
# Setup forcefield, system
# undefine any fix ave/* fix before using reset_timestep
if "$(is_defined(fix,avgp))" then "unfix avgp"
unfix avgp
reset_timestep 0

# Assign the force field
pair_style reaxff NULL safezone 3.0 mincap 150
# pair_coeff * * CHONSSi.ff O Si
# pair_coeff * * CHOSiNa.ff O Si
# pair_coeff * * SiOCHN_2018.ff O Si
# pair_coeff * * PDMSDecomp.ff Si O
pair_coeff * * CHONSi.ff C H O Si
# pair_coeff * * CHOFe.ff O Si

# charge method for reaxff
fix myqeq all qeq/reaxff 1 0.0 10.0 1.0e-6 reaxff maxiter 400
# Setup neighbor style
neighbor        2 bin
neigh_modify    every 10 delay 0 check no

# Setup output
fix avgp all ave/time  10 10 100 c_thermo_press mode vector
thermo		100
thermo_style custom step temp pe press f_avgp[1] vol
thermo_modify norm no

# NVT
fix 4 all nvt temp 300 300 50
run 2000
Step          Temp          PotEng         Press        f_avgp[1]        Volume
0   304.94382     -41233.973     -3783.4181      0              3738.5639
Averages over the last 11 of 21 rows, steps 1000 to 2000:
Temp PotEng Press f_avgp[1] Volume
293.905 -41251.2 2458.21 188.035 3738.56
Loop time of 97.0916 on 8 procs for 2000 steps with 350 atoms

# Obtain new stress tensor Negative deformation, convert index from LAMMPS to Voigt
variable pxx1 equal f_avgp[1]
variable pyy1 equal f_avgp[2]
variable pzz1 equal f_avgp[3]
variable pxy1 equal f_avgp[4]
variable pxz1 equal f_avgp[5]
variable pyz1 equal f_avgp[6]

# Compute elastic constant from pressure
# d1 = -[pxx1-pxx0]/[(]v_delta/v_len0] defined in input script
variable C1neg equal -43.4419238124192
variable C2neg equal 31.1478387428337
variable C3neg equal -29.7892952926212
variable C4neg equal -3.56810457933514
variable C5neg equal 11.8779142035717
variable C6neg equal -8.38978408382461

# Reset box and simulation parameters
clear
# box tilt large
read_restart equil.res
Reading restart file ...
  restart file = 2 Aug 2023, LAMMPS = 2 Aug 2023
  restoring atom style full from restart
  triclinic box = (0.069742272 0.40119664 -0.14695996) to (15.608458 13.818203 17.78526) with tilt (-7.7490667 -1.5378211 0.14232347)
  pair style reaxff stores no restart info
  350 atoms
Finding 1-2 1-3 1-4 neighbors ...
     0 = max # of 1-2 neighbors
     0 = max # of 1-3 neighbors
     0 = max # of 1-4 neighbors
     1 = max # of special neighbors
  read_restart CPU = 0.002 seconds
*****Positive-change 6 starts.*****
include ff.mod.lmp
# Setup forcefield, system
# undefine any fix ave/* fix before using reset_timestep
if "$(is_defined(fix,avgp))" then "unfix avgp"
reset_timestep 0

# Assign the force field
pair_style reaxff NULL safezone 3.0 mincap 150
# pair_coeff * * CHONSSi.ff O Si
# pair_coeff * * CHOSiNa.ff O Si
# pair_coeff * * SiOCHN_2018.ff O Si
# pair_coeff * * PDMSDecomp.ff Si O
pair_coeff * * CHONSi.ff C H O Si
# pair_coeff * * CHOFe.ff O Si

# charge method for reaxff
fix myqeq all qeq/reaxff 1 0.0 10.0 1.0e-6 reaxff maxiter 400
# Setup neighbor style
neighbor        2 bin
neigh_modify    every 10 delay 0 check no

# Setup output
fix avgp all ave/time  10 10 100 c_thermo_press mode vector
thermo		100
thermo_style custom step temp pe press f_avgp[1] vol
thermo_modify norm no

# NVT
fix 4 all nvt temp 300 300 50
  fix style: nvt, fix ID: 4

# Positive deformation
variable delta equal 0.01*13.4170067184353
variable deltaxy equal 0.01*xy
variable deltaxz equal 0.01*xz
variable deltayz equal 0.01*yz
change_box all xy delta 0.134170067184353 remap units box
Changing box ...
  triclinic box = (0.069742272 0.40119664 -0.14695996) to (15.608458 13.818203 17.78526) with tilt (-7.6148966 -1.5378211 0.14232347)

# Run positive deformation MD
# save trajectory
dump dump_pos6 all custom 100 dump/pos_deform6.lammpstrj id type x y z
run 2000
All restart file global fix info was re-assigned
Step          Temp          PotEng         Press        f_avgp[1]        Volume
0   289.20158     -41245.934     -5314.4298      0              3738.5639
Averages over the last 11 of 21 rows, steps 1000 to 2000:
Temp PotEng Press f_avgp[1] Volume
304.67 -41250.7 -2188.81 -1910.5 3738.56
Loop time of 92.647 on 8 procs for 2000 steps with 350 atoms

undump dump_pos6

# Run equilibration
*****Equilibration pos6 starts.*****
include ff.mod.lmp
# Setup forcefield, system
# undefine any fix ave/* fix before using reset_timestep
if "$(is_defined(fix,avgp))" then "unfix avgp"
unfix avgp
reset_timestep 0

# Assign the force field
pair_style reaxff NULL safezone 3.0 mincap 150
# pair_coeff * * CHONSSi.ff O Si
# pair_coeff * * CHOSiNa.ff O Si
# pair_coeff * * SiOCHN_2018.ff O Si
# pair_coeff * * PDMSDecomp.ff Si O
pair_coeff * * CHONSi.ff C H O Si
# pair_coeff * * CHOFe.ff O Si

# charge method for reaxff
fix myqeq all qeq/reaxff 1 0.0 10.0 1.0e-6 reaxff maxiter 400
# Setup neighbor style
neighbor        2 bin
neigh_modify    every 10 delay 0 check no

# Setup output
fix avgp all ave/time  10 10 100 c_thermo_press mode vector
thermo		100
thermo_style custom step temp pe press f_avgp[1] vol
thermo_modify norm no

# NVT
fix 4 all nvt temp 300 300 50
run 2000
Step          Temp          PotEng         Press        f_avgp[1]        Volume
0   297.68959     -41247.828     -12365.036      0              3738.5639
Averages over the last 11 of 21 rows, steps 1000 to 2000:
Temp PotEng Press f_avgp[1] Volume
300.184 -41258.2 -3774.43 -2344.64 3738.56
Loop time of 75.1135 on 8 procs for 2000 steps with 350 atoms

# Obtain new stress tensor, convert index from LAMMPS to Voigt
variable pxx1 equal f_avgp[1]
variable pyy1 equal f_avgp[2]
variable pzz1 equal f_avgp[3]
variable pxy1 equal f_avgp[4]
variable pxz1 equal f_avgp[5]
variable pyz1 equal f_avgp[6]

# Compute elastic constant from pressure tensor
# d1 = -[pxx1-pxx0]/[(]v_delta/v_len0] defined in input script
variable C1pos equal 35.6927417940351
variable C2pos equal 9.05248578619456
variable C3pos equal 74.5995550585522
variable C4pos equal -4.93900214673637
variable C5pos equal -3.25617091435581
variable C6pos equal 18.4117282327982

# Combine positive and negative
variable C16 equal 0.5*(-43.4419238124192+35.6927417940351)
variable C26 equal 0.5*(31.1478387428337+9.05248578619456)
variable C36 equal 0.5*(-29.7892952926212+74.5995550585522)
variable C46 equal 0.5*(-3.56810457933514+-4.93900214673637)
variable C56 equal 0.5*(11.8779142035717+-3.25617091435581)
variable C66 equal 0.5*(-8.38978408382461+18.4117282327982)

# Delete dir to make sure it is not reused
variable dir delete

# Calc and output
include calc.mod.lmp
variable C11all equal -4.12350424475985
variable C22all equal 19.5592034589729
variable C33all equal 7.57832914759195

variable C44all equal 1.53597218845839
variable C55all equal 7.70642464927368
variable C66all equal 5.0109720744868

variable C12all equal 0.5*(-17.6957378643364+2.1215713586072)
variable C13all equal 0.5*(-35.9878058357003+18.8844474274955)
variable C23all equal 0.5*(-30.8496812031632+-6.56846125925357)

variable C14all equal 0.5*(-36.5602560546346+6.12007857471188)
variable C15all equal 0.5*(4.10197985778235+-3.13241477477195)
variable C16all equal 0.5*(-3.87459100919205+-7.46429579633035)

variable C24all equal 0.5*(4.7261123751546+4.26995973235392)
variable C25all equal 0.5*(24.0510133053544+5.52608677765543)
variable C26all equal 0.5*(20.1001622645141+9.57705690053199)

variable C34all equal 0.5*(22.5344723505065+0.319127273254855)
variable C35all equal 0.5*(25.0326603593686+6.27361831062307)
variable C36all equal 0.5*(22.4051298829655+-2.61229610785641)

variable C45all equal 0.5*(5.27968916537504+6.18980715269537)
variable C46all equal 0.5*(-4.25355336303575+-2.06728360616258)
variable C56all equal 0.5*(4.31087164460795+-14.3693535339089)

# print stiffness tensor to "C.log"
print """
"""  file C.log screen no
